--- WARNING: traj_opt is zero, but num_traj is not zero; setting num_traj to zero.
--- NOTE: sst_update is 0, setting io_form_auxinput4 = 0 and auxinput4_interval = 0 for all domains
--- NOTE: grid_fdda is 0 for domain      1, setting gfdda interval and ending time to 0 for that domain.
--- NOTE: both grid_sfdda and pxlsm_soil_nudge are 0 for domain      1, setting sgfdda interval and ending time to 0 for that domain.
--- NOTE: obs_nudge_opt is 0 for domain      1, setting obs nudging interval and ending time to 0 for that domain.
--- NOTE: bl_pbl_physics /= 4, implies mfshconv must be 0, resetting
Need MYNN PBL for icloud_bl = 1, resetting to 0
--- NOTE: RRTMG radiation is not used, setting:  o3input=0 to avoid data pre-processing
--- NOTE: num_soil_layers has been set to      5
WRF V3.8.1 MODEL
DYNAMICS OPTION: Eulerian Mass Coordinate
 alloc_space_field: domain            1 ,             105319356  bytes allocated
med_initialdata_input: calling input_input
Timing for processing wrfinput file (stream 0) for domain        1:    0.09678 elapsed seconds
Max map factor in domain 1 =  0.00. Scale the dt in the model accordingly.
Timing for Writing wrfout_d01_0001-01-01_00:00:00 for domain        1:    0.80060 elapsed seconds
WRF NUMBER OF TILES FROM OMP_GET_MAX_THREADS =  80
 Tile Strategy is not specified. Assuming 1D-Y
WRF TILE   1 IS      1 IE      3 JS      1 JE      3
WRF TILE   2 IS      1 IE      3 JS      4 JE      6
WRF TILE   3 IS      1 IE      3 JS      7 JE      9
WRF TILE   4 IS      1 IE      3 JS     10 JE     12
WRF TILE   5 IS      1 IE      3 JS     13 JE     15
WRF TILE   6 IS      1 IE      3 JS     16 JE     18
WRF TILE   7 IS      1 IE      3 JS     19 JE     21
WRF TILE   8 IS      1 IE      3 JS     22 JE     24
WRF TILE   9 IS      1 IE      3 JS     25 JE     27
WRF TILE  10 IS      1 IE      3 JS     28 JE     30
WRF TILE  11 IS      1 IE      3 JS     31 JE     33
WRF TILE  12 IS      1 IE      3 JS     34 JE     36
WRF TILE  13 IS      1 IE      3 JS     37 JE     39
WRF TILE  14 IS      1 IE      3 JS     40 JE     42
WRF TILE  15 IS      1 IE      3 JS     43 JE     45
WRF TILE  16 IS      1 IE      3 JS     46 JE     48
WRF TILE  17 IS      1 IE      3 JS     49 JE     51
WRF TILE  18 IS      1 IE      3 JS     52 JE     54
WRF TILE  19 IS      1 IE      3 JS     55 JE     57
WRF TILE  20 IS      1 IE      3 JS     58 JE     60
WRF TILE  21 IS      1 IE      3 JS     61 JE     63
WRF TILE  22 IS      1 IE      3 JS     64 JE     65
WRF TILE  23 IS      1 IE      3 JS     66 JE     67
WRF TILE  24 IS      1 IE      3 JS     68 JE     69
WRF TILE  25 IS      1 IE      3 JS     70 JE     71
WRF TILE  26 IS      1 IE      3 JS     72 JE     73
WRF TILE  27 IS      1 IE      3 JS     74 JE     75
WRF TILE  28 IS      1 IE      3 JS     76 JE     77
WRF TILE  29 IS      1 IE      3 JS     78 JE     79
WRF TILE  30 IS      1 IE      3 JS     80 JE     81
WRF TILE  31 IS      1 IE      3 JS     82 JE     83
WRF TILE  32 IS      1 IE      3 JS     84 JE     85
WRF TILE  33 IS      1 IE      3 JS     86 JE     87
WRF TILE  34 IS      1 IE      3 JS     88 JE     89
WRF TILE  35 IS      1 IE      3 JS     90 JE     91
WRF TILE  36 IS      1 IE      3 JS     92 JE     93
WRF TILE  37 IS      1 IE      3 JS     94 JE     95
WRF TILE  38 IS      1 IE      3 JS     96 JE     97
WRF TILE  39 IS      1 IE      3 JS     98 JE     99
WRF TILE  40 IS      1 IE      3 JS    100 JE    101
WRF TILE  41 IS      1 IE      3 JS    102 JE    103
WRF TILE  42 IS      1 IE      3 JS    104 JE    105
WRF TILE  43 IS      1 IE      3 JS    106 JE    107
WRF TILE  44 IS      1 IE      3 JS    108 JE    109
WRF TILE  45 IS      1 IE      3 JS    110 JE    111
WRF TILE  46 IS      1 IE      3 JS    112 JE    113
WRF TILE  47 IS      1 IE      3 JS    114 JE    115
WRF TILE  48 IS      1 IE      3 JS    116 JE    117
WRF TILE  49 IS      1 IE      3 JS    118 JE    119
WRF TILE  50 IS      1 IE      3 JS    120 JE    121
WRF TILE  51 IS      1 IE      3 JS    122 JE    123
WRF TILE  52 IS      1 IE      3 JS    124 JE    125
WRF TILE  53 IS      1 IE      3 JS    126 JE    127
WRF TILE  54 IS      1 IE      3 JS    128 JE    129
WRF TILE  55 IS      1 IE      3 JS    130 JE    131
WRF TILE  56 IS      1 IE      3 JS    132 JE    133
WRF TILE  57 IS      1 IE      3 JS    134 JE    135
WRF TILE  58 IS      1 IE      3 JS    136 JE    137
WRF TILE  59 IS      1 IE      3 JS    138 JE    139
WRF TILE  60 IS      1 IE      3 JS    140 JE    142
WRF TILE  61 IS      1 IE      3 JS    143 JE    145
WRF TILE  62 IS      1 IE      3 JS    146 JE    148
WRF TILE  63 IS      1 IE      3 JS    149 JE    151
WRF TILE  64 IS      1 IE      3 JS    152 JE    154
WRF TILE  65 IS      1 IE      3 JS    155 JE    157
WRF TILE  66 IS      1 IE      3 JS    158 JE    160
WRF TILE  67 IS      1 IE      3 JS    161 JE    163
WRF TILE  68 IS      1 IE      3 JS    164 JE    166
WRF TILE  69 IS      1 IE      3 JS    167 JE    169
WRF TILE  70 IS      1 IE      3 JS    170 JE    172
WRF TILE  71 IS      1 IE      3 JS    173 JE    175
WRF TILE  72 IS      1 IE      3 JS    176 JE    178
WRF TILE  73 IS      1 IE      3 JS    179 JE    181
WRF TILE  74 IS      1 IE      3 JS    182 JE    184
WRF TILE  75 IS      1 IE      3 JS    185 JE    187
WRF TILE  76 IS      1 IE      3 JS    188 JE    190
WRF TILE  77 IS      1 IE      3 JS    191 JE    193
WRF TILE  78 IS      1 IE      3 JS    194 JE    196
WRF TILE  79 IS      1 IE      3 JS    197 JE    199
WRF TILE  80 IS      1 IE      3 JS    200 JE    202
WRF NUMBER OF TILES =  80
Timing for main: time 0001-01-01_00:00:03 on domain   1:    0.96988 elapsed seconds
Timing for main: time 0001-01-01_00:00:06 on domain   1:    0.02774 elapsed seconds
Timing for main: time 0001-01-01_00:00:09 on domain   1:    0.05152 elapsed seconds
Timing for main: time 0001-01-01_00:00:12 on domain   1:    0.02746 elapsed seconds
Timing for main: time 0001-01-01_00:00:15 on domain   1:    0.02636 elapsed seconds
Timing for main: time 0001-01-01_00:00:18 on domain   1:    0.03178 elapsed seconds
Timing for main: time 0001-01-01_00:00:21 on domain   1:    0.02615 elapsed seconds
Timing for main: time 0001-01-01_00:00:24 on domain   1:    0.02609 elapsed seconds
Timing for main: time 0001-01-01_00:00:27 on domain   1:    0.02646 elapsed seconds
Timing for main: time 0001-01-01_00:00:30 on domain   1:    0.02624 elapsed seconds
Timing for main: time 0001-01-01_00:00:33 on domain   1:    0.02649 elapsed seconds
Timing for main: time 0001-01-01_00:00:36 on domain   1:    0.02617 elapsed seconds
Timing for main: time 0001-01-01_00:00:39 on domain   1:    0.02649 elapsed seconds
Timing for main: time 0001-01-01_00:00:42 on domain   1:    0.02607 elapsed seconds
Timing for main: time 0001-01-01_00:00:45 on domain   1:    0.02658 elapsed seconds
Timing for main: time 0001-01-01_00:00:48 on domain   1:    0.02620 elapsed seconds
Timing for main: time 0001-01-01_00:00:51 on domain   1:    0.02649 elapsed seconds
Timing for main: time 0001-01-01_00:00:54 on domain   1:    0.02602 elapsed seconds
Timing for main: time 0001-01-01_00:00:57 on domain   1:    0.02643 elapsed seconds
Timing for main: time 0001-01-01_00:01:00 on domain   1:    0.02628 elapsed seconds
Timing for main: time 0001-01-01_00:01:03 on domain   1:    0.02778 elapsed seconds
Timing for main: time 0001-01-01_00:01:06 on domain   1:    0.10564 elapsed seconds
Timing for main: time 0001-01-01_00:01:09 on domain   1:    0.02630 elapsed seconds
Timing for main: time 0001-01-01_00:01:12 on domain   1:    0.02629 elapsed seconds
Timing for main: time 0001-01-01_00:01:15 on domain   1:    0.02725 elapsed seconds
Timing for main: time 0001-01-01_00:01:18 on domain   1:    0.03231 elapsed seconds
Timing for main: time 0001-01-01_00:01:21 on domain   1:    0.03262 elapsed seconds
Timing for main: time 0001-01-01_00:01:24 on domain   1:    0.04265 elapsed seconds
Timing for main: time 0001-01-01_00:01:27 on domain   1:    0.02591 elapsed seconds
Timing for main: time 0001-01-01_00:01:30 on domain   1:    0.02639 elapsed seconds
Timing for main: time 0001-01-01_00:01:33 on domain   1:    0.02609 elapsed seconds
Timing for main: time 0001-01-01_00:01:36 on domain   1:    0.02658 elapsed seconds
Timing for main: time 0001-01-01_00:01:39 on domain   1:    0.02610 elapsed seconds
Timing for main: time 0001-01-01_00:01:42 on domain   1:    0.02671 elapsed seconds
Timing for main: time 0001-01-01_00:01:45 on domain   1:    0.02614 elapsed seconds
Timing for main: time 0001-01-01_00:01:48 on domain   1:    0.09807 elapsed seconds
Timing for main: time 0001-01-01_00:01:51 on domain   1:    0.06835 elapsed seconds
Timing for main: time 0001-01-01_00:01:54 on domain   1:    0.02442 elapsed seconds
Timing for main: time 0001-01-01_00:01:57 on domain   1:    0.02470 elapsed seconds
Timing for main: time 0001-01-01_00:02:00 on domain   1:    0.02437 elapsed seconds
Timing for main: time 0001-01-01_00:02:03 on domain   1:    0.02451 elapsed seconds
Timing for main: time 0001-01-01_00:02:06 on domain   1:    0.02423 elapsed seconds
Timing for main: time 0001-01-01_00:02:09 on domain   1:    0.02482 elapsed seconds
Timing for main: time 0001-01-01_00:02:12 on domain   1:    0.02436 elapsed seconds
Timing for main: time 0001-01-01_00:02:15 on domain   1:    0.02481 elapsed seconds
Timing for main: time 0001-01-01_00:02:18 on domain   1:    0.02433 elapsed seconds
Timing for main: time 0001-01-01_00:02:21 on domain   1:    0.02480 elapsed seconds
Timing for main: time 0001-01-01_00:02:24 on domain   1:    0.02434 elapsed seconds
Timing for main: time 0001-01-01_00:02:27 on domain   1:    0.02481 elapsed seconds
Timing for main: time 0001-01-01_00:02:30 on domain   1:    0.02424 elapsed seconds
Timing for main: time 0001-01-01_00:02:33 on domain   1:    0.02428 elapsed seconds
Timing for main: time 0001-01-01_00:02:36 on domain   1:    0.02422 elapsed seconds
Timing for main: time 0001-01-01_00:02:39 on domain   1:    0.02650 elapsed seconds
Timing for main: time 0001-01-01_00:02:42 on domain   1:    0.02454 elapsed seconds
Timing for main: time 0001-01-01_00:02:45 on domain   1:    0.02451 elapsed seconds
Timing for main: time 0001-01-01_00:02:48 on domain   1:    0.02466 elapsed seconds
Timing for main: time 0001-01-01_00:02:51 on domain   1:    0.11776 elapsed seconds
Timing for main: time 0001-01-01_00:02:54 on domain   1:    0.02462 elapsed seconds
Timing for main: time 0001-01-01_00:02:57 on domain   1:    0.03817 elapsed seconds
Timing for main: time 0001-01-01_00:03:00 on domain   1:    0.02434 elapsed seconds
Timing for main: time 0001-01-01_00:03:03 on domain   1:    0.02629 elapsed seconds
Timing for main: time 0001-01-01_00:03:06 on domain   1:    0.02434 elapsed seconds
Timing for main: time 0001-01-01_00:03:09 on domain   1:    0.02492 elapsed seconds
Timing for main: time 0001-01-01_00:03:12 on domain   1:    0.02623 elapsed seconds
Timing for main: time 0001-01-01_00:03:15 on domain   1:    0.45992 elapsed seconds
Timing for main: time 0001-01-01_00:03:18 on domain   1:    0.29781 elapsed seconds
Timing for main: time 0001-01-01_00:03:21 on domain   1:    0.02487 elapsed seconds
Timing for main: time 0001-01-01_00:03:24 on domain   1:    0.03071 elapsed seconds
Timing for main: time 0001-01-01_00:03:27 on domain   1:    0.08811 elapsed seconds
Timing for main: time 0001-01-01_00:03:30 on domain   1:    0.02472 elapsed seconds
Timing for main: time 0001-01-01_00:03:33 on domain   1:    0.02427 elapsed seconds
Timing for main: time 0001-01-01_00:03:36 on domain   1:    0.02512 elapsed seconds
Timing for main: time 0001-01-01_00:03:39 on domain   1:    0.02433 elapsed seconds
Timing for main: time 0001-01-01_00:03:42 on domain   1:    0.02682 elapsed seconds
Timing for main: time 0001-01-01_00:03:45 on domain   1:    0.03056 elapsed seconds
Timing for main: time 0001-01-01_00:03:48 on domain   1:    0.03227 elapsed seconds
Timing for main: time 0001-01-01_00:03:51 on domain   1:    0.02438 elapsed seconds
Timing for main: time 0001-01-01_00:03:54 on domain   1:    0.02461 elapsed seconds
Timing for main: time 0001-01-01_00:03:57 on domain   1:    0.02446 elapsed seconds
Timing for main: time 0001-01-01_00:04:00 on domain   1:    0.02472 elapsed seconds
Timing for main: time 0001-01-01_00:04:03 on domain   1:    0.02419 elapsed seconds
Timing for main: time 0001-01-01_00:04:06 on domain   1:    0.02463 elapsed seconds
Timing for main: time 0001-01-01_00:04:09 on domain   1:    0.02440 elapsed seconds
Timing for main: time 0001-01-01_00:04:12 on domain   1:    0.02454 elapsed seconds
Timing for main: time 0001-01-01_00:04:15 on domain   1:    0.02445 elapsed seconds
Timing for main: time 0001-01-01_00:04:18 on domain   1:    0.02464 elapsed seconds
Timing for main: time 0001-01-01_00:04:21 on domain   1:    0.02424 elapsed seconds
Timing for main: time 0001-01-01_00:04:24 on domain   1:    0.02474 elapsed seconds
Timing for main: time 0001-01-01_00:04:27 on domain   1:    0.02436 elapsed seconds
Timing for main: time 0001-01-01_00:04:30 on domain   1:    0.02466 elapsed seconds
Timing for main: time 0001-01-01_00:04:33 on domain   1:    0.02445 elapsed seconds
Timing for main: time 0001-01-01_00:04:36 on domain   1:    0.02442 elapsed seconds
Timing for main: time 0001-01-01_00:04:39 on domain   1:    0.02439 elapsed seconds
Timing for main: time 0001-01-01_00:04:42 on domain   1:    0.02475 elapsed seconds
Timing for main: time 0001-01-01_00:04:45 on domain   1:    0.02433 elapsed seconds
Timing for main: time 0001-01-01_00:04:48 on domain   1:    0.02483 elapsed seconds
Timing for main: time 0001-01-01_00:04:51 on domain   1:    0.02444 elapsed seconds
Timing for main: time 0001-01-01_00:04:54 on domain   1:    0.02485 elapsed seconds
Timing for main: time 0001-01-01_00:04:57 on domain   1:    0.02440 elapsed seconds
Timing for main: time 0001-01-01_00:05:00 on domain   1:    0.02489 elapsed seconds
Timing for main: time 0001-01-01_00:05:03 on domain   1:    0.02430 elapsed seconds
Timing for main: time 0001-01-01_00:05:06 on domain   1:    0.02487 elapsed seconds
Timing for main: time 0001-01-01_00:05:09 on domain   1:    0.02440 elapsed seconds
Timing for main: time 0001-01-01_00:05:12 on domain   1:    0.02640 elapsed seconds
Timing for main: time 0001-01-01_00:05:15 on domain   1:    0.02432 elapsed seconds
Timing for main: time 0001-01-01_00:05:18 on domain   1:    0.02475 elapsed seconds
Timing for main: time 0001-01-01_00:05:21 on domain   1:    0.02426 elapsed seconds
Timing for main: time 0001-01-01_00:05:24 on domain   1:    0.03886 elapsed seconds
Timing for main: time 0001-01-01_00:05:27 on domain   1:    0.02692 elapsed seconds
Timing for main: time 0001-01-01_00:05:30 on domain   1:    0.02843 elapsed seconds
Timing for main: time 0001-01-01_00:05:33 on domain   1:    0.02616 elapsed seconds
Timing for main: time 0001-01-01_00:05:36 on domain   1:    0.37702 elapsed seconds
Timing for main: time 0001-01-01_00:05:39 on domain   1:    0.02739 elapsed seconds
Timing for main: time 0001-01-01_00:05:42 on domain   1:    0.18354 elapsed seconds
Timing for main: time 0001-01-01_00:05:45 on domain   1:    0.87434 elapsed seconds
Timing for main: time 0001-01-01_00:05:48 on domain   1:    0.02452 elapsed seconds
Timing for main: time 0001-01-01_00:05:51 on domain   1:    0.02516 elapsed seconds
Timing for main: time 0001-01-01_00:05:54 on domain   1:    0.02453 elapsed seconds
Timing for main: time 0001-01-01_00:05:57 on domain   1:    0.02495 elapsed seconds
Timing for main: time 0001-01-01_00:06:00 on domain   1:    0.02452 elapsed seconds
Timing for main: time 0001-01-01_00:06:03 on domain   1:    0.02515 elapsed seconds
Timing for main: time 0001-01-01_00:06:06 on domain   1:    0.02565 elapsed seconds
Timing for main: time 0001-01-01_00:06:09 on domain   1:    0.03964 elapsed seconds
Timing for main: time 0001-01-01_00:06:12 on domain   1:    0.02428 elapsed seconds
Timing for main: time 0001-01-01_00:06:15 on domain   1:    0.02424 elapsed seconds
Timing for main: time 0001-01-01_00:06:18 on domain   1:    0.02418 elapsed seconds
Timing for main: time 0001-01-01_00:06:21 on domain   1:    0.02447 elapsed seconds
Timing for main: time 0001-01-01_00:06:24 on domain   1:    0.02416 elapsed seconds
Timing for main: time 0001-01-01_00:06:27 on domain   1:    0.02440 elapsed seconds
Timing for main: time 0001-01-01_00:06:30 on domain   1:    0.02410 elapsed seconds
Timing for main: time 0001-01-01_00:06:33 on domain   1:    0.02443 elapsed seconds
Timing for main: time 0001-01-01_00:06:36 on domain   1:    0.02434 elapsed seconds
Timing for main: time 0001-01-01_00:06:39 on domain   1:    0.03773 elapsed seconds
Timing for main: time 0001-01-01_00:06:42 on domain   1:    0.02469 elapsed seconds
Timing for main: time 0001-01-01_00:06:45 on domain   1:    0.02446 elapsed seconds
Timing for main: time 0001-01-01_00:06:48 on domain   1:    0.02452 elapsed seconds
Timing for main: time 0001-01-01_00:06:51 on domain   1:    0.02425 elapsed seconds
Timing for main: time 0001-01-01_00:06:54 on domain   1:    0.02426 elapsed seconds
Timing for main: time 0001-01-01_00:06:57 on domain   1:    0.02422 elapsed seconds
Timing for main: time 0001-01-01_00:07:00 on domain   1:    0.02459 elapsed seconds
Timing for main: time 0001-01-01_00:07:03 on domain   1:    0.02443 elapsed seconds
Timing for main: time 0001-01-01_00:07:06 on domain   1:    0.02585 elapsed seconds
Timing for main: time 0001-01-01_00:07:09 on domain   1:    0.02450 elapsed seconds
Timing for main: time 0001-01-01_00:07:12 on domain   1:    0.02452 elapsed seconds
Timing for main: time 0001-01-01_00:07:15 on domain   1:    0.02465 elapsed seconds
Timing for main: time 0001-01-01_00:07:18 on domain   1:    0.02444 elapsed seconds
Timing for main: time 0001-01-01_00:07:21 on domain   1:    0.02457 elapsed seconds
Timing for main: time 0001-01-01_00:07:24 on domain   1:    0.02465 elapsed seconds
Timing for main: time 0001-01-01_00:07:27 on domain   1:    0.02481 elapsed seconds
Timing for main: time 0001-01-01_00:07:30 on domain   1:    0.02461 elapsed seconds
Timing for main: time 0001-01-01_00:07:33 on domain   1:    0.02496 elapsed seconds
Timing for main: time 0001-01-01_00:07:36 on domain   1:    0.02463 elapsed seconds
Timing for main: time 0001-01-01_00:07:39 on domain   1:    0.02481 elapsed seconds
Timing for main: time 0001-01-01_00:07:42 on domain   1:    0.02610 elapsed seconds
Timing for main: time 0001-01-01_00:07:45 on domain   1:    0.02482 elapsed seconds
Timing for main: time 0001-01-01_00:07:48 on domain   1:    0.02465 elapsed seconds
Timing for main: time 0001-01-01_00:07:51 on domain   1:    0.02493 elapsed seconds
Timing for main: time 0001-01-01_00:07:54 on domain   1:    0.02562 elapsed seconds
Timing for main: time 0001-01-01_00:07:57 on domain   1:    0.02493 elapsed seconds
Timing for main: time 0001-01-01_00:08:00 on domain   1:    0.02476 elapsed seconds
Timing for main: time 0001-01-01_00:08:03 on domain   1:    0.02490 elapsed seconds
Timing for main: time 0001-01-01_00:08:06 on domain   1:    0.02472 elapsed seconds
Timing for main: time 0001-01-01_00:08:09 on domain   1:    0.02520 elapsed seconds
Timing for main: time 0001-01-01_00:08:12 on domain   1:    0.02478 elapsed seconds
Timing for main: time 0001-01-01_00:08:15 on domain   1:    0.04513 elapsed seconds
Timing for main: time 0001-01-01_00:08:18 on domain   1:    0.02537 elapsed seconds
Timing for main: time 0001-01-01_00:08:21 on domain   1:    0.02696 elapsed seconds
Timing for main: time 0001-01-01_00:08:24 on domain   1:    0.02546 elapsed seconds
Timing for main: time 0001-01-01_00:08:27 on domain   1:    0.03957 elapsed seconds
Timing for main: time 0001-01-01_00:08:30 on domain   1:    0.08139 elapsed seconds
Timing for main: time 0001-01-01_00:08:33 on domain   1:    0.02564 elapsed seconds
Timing for main: time 0001-01-01_00:08:36 on domain   1:    0.02551 elapsed seconds
Timing for main: time 0001-01-01_00:08:39 on domain   1:    0.02566 elapsed seconds
Timing for main: time 0001-01-01_00:08:42 on domain   1:    0.02524 elapsed seconds
Timing for main: time 0001-01-01_00:08:45 on domain   1:    0.02567 elapsed seconds
Timing for main: time 0001-01-01_00:08:48 on domain   1:    0.02507 elapsed seconds
Timing for main: time 0001-01-01_00:08:51 on domain   1:    0.02549 elapsed seconds
Timing for main: time 0001-01-01_00:08:54 on domain   1:    0.02522 elapsed seconds
Timing for main: time 0001-01-01_00:08:57 on domain   1:    0.02553 elapsed seconds
Timing for main: time 0001-01-01_00:09:00 on domain   1:    0.02519 elapsed seconds
Timing for main: time 0001-01-01_00:09:03 on domain   1:    0.02540 elapsed seconds
Timing for main: time 0001-01-01_00:09:06 on domain   1:    0.02520 elapsed seconds
Timing for main: time 0001-01-01_00:09:09 on domain   1:    0.02691 elapsed seconds
Timing for main: time 0001-01-01_00:09:12 on domain   1:    0.03739 elapsed seconds
Timing for main: time 0001-01-01_00:09:15 on domain   1:    0.02710 elapsed seconds
Timing for main: time 0001-01-01_00:09:18 on domain   1:    0.02569 elapsed seconds
Timing for main: time 0001-01-01_00:09:21 on domain   1:    0.02526 elapsed seconds
Timing for main: time 0001-01-01_00:09:24 on domain   1:    0.02575 elapsed seconds
Timing for main: time 0001-01-01_00:09:27 on domain   1:    0.02534 elapsed seconds
Timing for main: time 0001-01-01_00:09:30 on domain   1:    0.03361 elapsed seconds
Timing for main: time 0001-01-01_00:09:33 on domain   1:    1.38151 elapsed seconds
Timing for main: time 0001-01-01_00:09:36 on domain   1:    0.03224 elapsed seconds
Timing for main: time 0001-01-01_00:09:39 on domain   1:    0.02482 elapsed seconds
Timing for main: time 0001-01-01_00:09:42 on domain   1:    0.03811 elapsed seconds
Timing for main: time 0001-01-01_00:09:45 on domain   1:    0.02474 elapsed seconds
Timing for main: time 0001-01-01_00:09:48 on domain   1:    0.02472 elapsed seconds
Timing for main: time 0001-01-01_00:09:51 on domain   1:    0.02474 elapsed seconds
Timing for main: time 0001-01-01_00:09:54 on domain   1:    0.03116 elapsed seconds
Timing for main: time 0001-01-01_00:09:57 on domain   1:    0.09655 elapsed seconds
Timing for main: time 0001-01-01_00:10:00 on domain   1:    0.02482 elapsed seconds
Timing for Writing wrfout_d01_0001-01-01_00:10:00 for domain        1:    0.01543 elapsed seconds
Timing for main: time 0001-01-01_00:10:03 on domain   1:    0.04027 elapsed seconds
Timing for main: time 0001-01-01_00:10:06 on domain   1:    0.02456 elapsed seconds
Timing for main: time 0001-01-01_00:10:09 on domain   1:    0.02516 elapsed seconds
Timing for main: time 0001-01-01_00:10:12 on domain   1:    0.02456 elapsed seconds
Timing for main: time 0001-01-01_00:10:15 on domain   1:    0.02517 elapsed seconds
Timing for main: time 0001-01-01_00:10:18 on domain   1:    0.02476 elapsed seconds
Timing for main: time 0001-01-01_00:10:21 on domain   1:    0.02513 elapsed seconds
Timing for main: time 0001-01-01_00:10:24 on domain   1:    0.02469 elapsed seconds
Timing for main: time 0001-01-01_00:10:27 on domain   1:    0.02510 elapsed seconds
Timing for main: time 0001-01-01_00:10:30 on domain   1:    0.02465 elapsed seconds
Timing for main: time 0001-01-01_00:10:33 on domain   1:    0.02694 elapsed seconds
Timing for main: time 0001-01-01_00:10:36 on domain   1:    0.03079 elapsed seconds
Timing for main: time 0001-01-01_00:10:39 on domain   1:    0.03221 elapsed seconds
Timing for main: time 0001-01-01_00:10:42 on domain   1:    0.02490 elapsed seconds
Timing for main: time 0001-01-01_00:10:45 on domain   1:    0.02508 elapsed seconds
Timing for main: time 0001-01-01_00:10:48 on domain   1:    0.02485 elapsed seconds
Timing for main: time 0001-01-01_00:10:51 on domain   1:    0.02513 elapsed seconds
Timing for main: time 0001-01-01_00:10:54 on domain   1:    0.02479 elapsed seconds
Timing for main: time 0001-01-01_00:10:57 on domain   1:    0.02498 elapsed seconds
Timing for main: time 0001-01-01_00:11:00 on domain   1:    0.03168 elapsed seconds
Timing for main: time 0001-01-01_00:11:03 on domain   1:    0.02479 elapsed seconds
Timing for main: time 0001-01-01_00:11:06 on domain   1:    0.02564 elapsed seconds
Timing for main: time 0001-01-01_00:11:09 on domain   1:    0.03146 elapsed seconds
Timing for main: time 0001-01-01_00:11:12 on domain   1:    0.03255 elapsed seconds
Timing for main: time 0001-01-01_00:11:15 on domain   1:    0.02467 elapsed seconds
Timing for main: time 0001-01-01_00:11:18 on domain   1:    0.02493 elapsed seconds
Timing for main: time 0001-01-01_00:11:21 on domain   1:    0.02475 elapsed seconds
Timing for main: time 0001-01-01_00:11:24 on domain   1:    0.02509 elapsed seconds
Timing for main: time 0001-01-01_00:11:27 on domain   1:    0.03858 elapsed seconds
Timing for main: time 0001-01-01_00:11:30 on domain   1:    0.02509 elapsed seconds
Timing for main: time 0001-01-01_00:11:33 on domain   1:    0.02487 elapsed seconds
Timing for main: time 0001-01-01_00:11:36 on domain   1:    0.02488 elapsed seconds
Timing for main: time 0001-01-01_00:11:39 on domain   1:    0.02525 elapsed seconds
Timing for main: time 0001-01-01_00:11:42 on domain   1:    0.02471 elapsed seconds
Timing for main: time 0001-01-01_00:11:45 on domain   1:    0.02502 elapsed seconds
Timing for main: time 0001-01-01_00:11:48 on domain   1:    0.02504 elapsed seconds
Timing for main: time 0001-01-01_00:11:51 on domain   1:    0.09630 elapsed seconds
Timing for main: time 0001-01-01_00:11:54 on domain   1:    0.34295 elapsed seconds
Timing for main: time 0001-01-01_00:11:57 on domain   1:    0.42299 elapsed seconds
Timing for main: time 0001-01-01_00:12:00 on domain   1:    0.02587 elapsed seconds
Timing for main: time 0001-01-01_00:12:03 on domain   1:    0.02719 elapsed seconds
Timing for main: time 0001-01-01_00:12:06 on domain   1:    0.02589 elapsed seconds
Timing for main: time 0001-01-01_00:12:09 on domain   1:    0.02667 elapsed seconds
Timing for main: time 0001-01-01_00:12:12 on domain   1:    0.02753 elapsed seconds
Timing for main: time 0001-01-01_00:12:15 on domain   1:    0.02809 elapsed seconds
Timing for main: time 0001-01-01_00:12:18 on domain   1:    0.02645 elapsed seconds
Timing for main: time 0001-01-01_00:12:21 on domain   1:    0.02894 elapsed seconds
Timing for main: time 0001-01-01_00:12:24 on domain   1:    0.03334 elapsed seconds
Timing for main: time 0001-01-01_00:12:27 on domain   1:    0.09778 elapsed seconds
Timing for main: time 0001-01-01_00:12:30 on domain   1:    0.03263 elapsed seconds
Timing for main: time 0001-01-01_00:12:33 on domain   1:    0.03074 elapsed seconds
Timing for main: time 0001-01-01_00:12:36 on domain   1:    0.02649 elapsed seconds
Timing for main: time 0001-01-01_00:12:39 on domain   1:    0.02875 elapsed seconds
Timing for main: time 0001-01-01_00:12:42 on domain   1:    0.02883 elapsed seconds
Timing for main: time 0001-01-01_00:12:45 on domain   1:    0.02810 elapsed seconds
Timing for main: time 0001-01-01_00:12:48 on domain   1:    0.02613 elapsed seconds
Timing for main: time 0001-01-01_00:12:51 on domain   1:    0.02649 elapsed seconds
Timing for main: time 0001-01-01_00:12:54 on domain   1:    0.02662 elapsed seconds
Timing for main: time 0001-01-01_00:12:57 on domain   1:    0.02654 elapsed seconds
Timing for main: time 0001-01-01_00:13:00 on domain   1:    0.02640 elapsed seconds
Timing for main: time 0001-01-01_00:13:03 on domain   1:    0.03636 elapsed seconds
Timing for main: time 0001-01-01_00:13:06 on domain   1:    0.03031 elapsed seconds
Timing for main: time 0001-01-01_00:13:09 on domain   1:    0.03261 elapsed seconds
Timing for main: time 0001-01-01_00:13:12 on domain   1:    0.03453 elapsed seconds
Timing for main: time 0001-01-01_00:13:15 on domain   1:    0.02742 elapsed seconds
Timing for main: time 0001-01-01_00:13:18 on domain   1:    0.02749 elapsed seconds
Timing for main: time 0001-01-01_00:13:21 on domain   1:    0.02717 elapsed seconds
Timing for main: time 0001-01-01_00:13:24 on domain   1:    0.03190 elapsed seconds
Timing for main: time 0001-01-01_00:13:27 on domain   1:    0.02690 elapsed seconds
Timing for main: time 0001-01-01_00:13:30 on domain   1:    0.04800 elapsed seconds
Timing for main: time 0001-01-01_00:13:33 on domain   1:    0.03765 elapsed seconds
Timing for main: time 0001-01-01_00:13:36 on domain   1:    0.02749 elapsed seconds
Timing for main: time 0001-01-01_00:13:39 on domain   1:    0.02714 elapsed seconds
Timing for main: time 0001-01-01_00:13:42 on domain   1:    0.02577 elapsed seconds
Timing for main: time 0001-01-01_00:13:45 on domain   1:    0.02651 elapsed seconds
Timing for main: time 0001-01-01_00:13:48 on domain   1:    0.05628 elapsed seconds
Timing for main: time 0001-01-01_00:13:51 on domain   1:    0.03052 elapsed seconds
Timing for main: time 0001-01-01_00:13:54 on domain   1:    0.04116 elapsed seconds
Timing for main: time 0001-01-01_00:13:57 on domain   1:    0.02754 elapsed seconds
Timing for main: time 0001-01-01_00:14:00 on domain   1:    0.03156 elapsed seconds
Timing for main: time 0001-01-01_00:14:03 on domain   1:    0.02574 elapsed seconds
Timing for main: time 0001-01-01_00:14:06 on domain   1:    0.11553 elapsed seconds
Timing for main: time 0001-01-01_00:14:09 on domain   1:    0.02584 elapsed seconds
Timing for main: time 0001-01-01_00:14:12 on domain   1:    0.02533 elapsed seconds
Timing for main: time 0001-01-01_00:14:15 on domain   1:    0.02732 elapsed seconds
Timing for main: time 0001-01-01_00:14:18 on domain   1:    0.02553 elapsed seconds
Timing for main: time 0001-01-01_00:14:21 on domain   1:    0.02581 elapsed seconds
Timing for main: time 0001-01-01_00:14:24 on domain   1:    0.02554 elapsed seconds
Timing for main: time 0001-01-01_00:14:27 on domain   1:    0.02579 elapsed seconds
Timing for main: time 0001-01-01_00:14:30 on domain   1:    0.02535 elapsed seconds
Timing for main: time 0001-01-01_00:14:33 on domain   1:    0.02585 elapsed seconds
Timing for main: time 0001-01-01_00:14:36 on domain   1:    0.02540 elapsed seconds
Timing for main: time 0001-01-01_00:14:39 on domain   1:    0.02563 elapsed seconds
Timing for main: time 0001-01-01_00:14:42 on domain   1:    0.02551 elapsed seconds
Timing for main: time 0001-01-01_00:14:45 on domain   1:    0.02579 elapsed seconds
Timing for main: time 0001-01-01_00:14:48 on domain   1:    0.02768 elapsed seconds
Timing for main: time 0001-01-01_00:14:51 on domain   1:    0.02555 elapsed seconds
Timing for main: time 0001-01-01_00:14:54 on domain   1:    0.02571 elapsed seconds
Timing for main: time 0001-01-01_00:14:57 on domain   1:    0.02564 elapsed seconds
Timing for main: time 0001-01-01_00:15:00 on domain   1:    0.02577 elapsed seconds
Timing for main: time 0001-01-01_00:15:03 on domain   1:    0.12363 elapsed seconds
Timing for main: time 0001-01-01_00:15:06 on domain   1:    0.65091 elapsed seconds
Timing for main: time 0001-01-01_00:15:09 on domain   1:    0.02576 elapsed seconds
Timing for main: time 0001-01-01_00:15:12 on domain   1:    0.02562 elapsed seconds
Timing for main: time 0001-01-01_00:15:15 on domain   1:    0.02574 elapsed seconds
Timing for main: time 0001-01-01_00:15:18 on domain   1:    0.02591 elapsed seconds
Timing for main: time 0001-01-01_00:15:21 on domain   1:    0.02584 elapsed seconds
Timing for main: time 0001-01-01_00:15:24 on domain   1:    0.02579 elapsed seconds
Timing for main: time 0001-01-01_00:15:27 on domain   1:    0.02603 elapsed seconds
Timing for main: time 0001-01-01_00:15:30 on domain   1:    0.02588 elapsed seconds
Timing for main: time 0001-01-01_00:15:33 on domain   1:    0.02705 elapsed seconds
Timing for main: time 0001-01-01_00:15:36 on domain   1:    0.03192 elapsed seconds
Timing for main: time 0001-01-01_00:15:39 on domain   1:    0.04105 elapsed seconds
Timing for main: time 0001-01-01_00:15:42 on domain   1:    0.02643 elapsed seconds
Timing for main: time 0001-01-01_00:15:45 on domain   1:    0.02598 elapsed seconds
Timing for main: time 0001-01-01_00:15:48 on domain   1:    0.02618 elapsed seconds
Timing for main: time 0001-01-01_00:15:51 on domain   1:    0.02601 elapsed seconds
Timing for main: time 0001-01-01_00:15:54 on domain   1:    0.02624 elapsed seconds
Timing for main: time 0001-01-01_00:15:57 on domain   1:    0.02583 elapsed seconds
Timing for main: time 0001-01-01_00:16:00 on domain   1:    0.02650 elapsed seconds
Timing for main: time 0001-01-01_00:16:03 on domain   1:    0.02596 elapsed seconds
Timing for main: time 0001-01-01_00:16:06 on domain   1:    0.03341 elapsed seconds
Timing for main: time 0001-01-01_00:16:09 on domain   1:    0.03504 elapsed seconds
Timing for main: time 0001-01-01_00:16:12 on domain   1:    0.02762 elapsed seconds
Timing for main: time 0001-01-01_00:16:15 on domain   1:    0.02617 elapsed seconds
Timing for main: time 0001-01-01_00:16:18 on domain   1:    0.02596 elapsed seconds
Timing for main: time 0001-01-01_00:16:21 on domain   1:    0.02636 elapsed seconds
Timing for main: time 0001-01-01_00:16:24 on domain   1:    0.02604 elapsed seconds
Timing for main: time 0001-01-01_00:16:27 on domain   1:    0.02645 elapsed seconds
Timing for main: time 0001-01-01_00:16:30 on domain   1:    0.02606 elapsed seconds
Timing for main: time 0001-01-01_00:16:33 on domain   1:    0.02664 elapsed seconds
Timing for main: time 0001-01-01_00:16:36 on domain   1:    0.02636 elapsed seconds
Timing for main: time 0001-01-01_00:16:39 on domain   1:    0.02716 elapsed seconds
Timing for main: time 0001-01-01_00:16:42 on domain   1:    0.09569 elapsed seconds
Timing for main: time 0001-01-01_00:16:45 on domain   1:    0.02645 elapsed seconds
Timing for main: time 0001-01-01_00:16:48 on domain   1:    0.02652 elapsed seconds
Timing for main: time 0001-01-01_00:16:51 on domain   1:    0.02638 elapsed seconds
Timing for main: time 0001-01-01_00:16:54 on domain   1:    0.02640 elapsed seconds
Timing for main: time 0001-01-01_00:16:57 on domain   1:    0.02656 elapsed seconds
Timing for main: time 0001-01-01_00:17:00 on domain   1:    0.02653 elapsed seconds
Timing for main: time 0001-01-01_00:17:03 on domain   1:    0.02685 elapsed seconds
Timing for main: time 0001-01-01_00:17:06 on domain   1:    0.02663 elapsed seconds
Timing for main: time 0001-01-01_00:17:09 on domain   1:    0.02684 elapsed seconds
Timing for main: time 0001-01-01_00:17:12 on domain   1:    0.02676 elapsed seconds
Timing for main: time 0001-01-01_00:17:15 on domain   1:    0.02724 elapsed seconds
Timing for main: time 0001-01-01_00:17:18 on domain   1:    0.02686 elapsed seconds
Timing for main: time 0001-01-01_00:17:21 on domain   1:    0.04129 elapsed seconds
Timing for main: time 0001-01-01_00:17:24 on domain   1:    0.02740 elapsed seconds
Timing for main: time 0001-01-01_00:17:27 on domain   1:    0.02707 elapsed seconds
Timing for main: time 0001-01-01_00:17:30 on domain   1:    0.02729 elapsed seconds
Timing for main: time 0001-01-01_00:17:33 on domain   1:    0.02697 elapsed seconds
Timing for main: time 0001-01-01_00:17:36 on domain   1:    0.03406 elapsed seconds
Timing for main: time 0001-01-01_00:17:39 on domain   1:    0.02986 elapsed seconds
Timing for main: time 0001-01-01_00:17:42 on domain   1:    0.02727 elapsed seconds
Timing for main: time 0001-01-01_00:17:45 on domain   1:    0.02752 elapsed seconds
Timing for main: time 0001-01-01_00:17:48 on domain   1:    0.02732 elapsed seconds
Timing for main: time 0001-01-01_00:17:51 on domain   1:    0.02781 elapsed seconds
Timing for main: time 0001-01-01_00:17:54 on domain   1:    0.02738 elapsed seconds
Timing for main: time 0001-01-01_00:17:57 on domain   1:    0.02778 elapsed seconds
Timing for main: time 0001-01-01_00:18:00 on domain   1:    0.02750 elapsed seconds
Timing for main: time 0001-01-01_00:18:03 on domain   1:    0.02865 elapsed seconds
Timing for main: time 0001-01-01_00:18:06 on domain   1:    0.02766 elapsed seconds
Timing for main: time 0001-01-01_00:18:09 on domain   1:    0.02751 elapsed seconds
Timing for main: time 0001-01-01_00:18:12 on domain   1:    0.02799 elapsed seconds
Timing for main: time 0001-01-01_00:18:15 on domain   1:    0.02758 elapsed seconds
Timing for main: time 0001-01-01_00:18:18 on domain   1:    0.02814 elapsed seconds
Timing for main: time 0001-01-01_00:18:21 on domain   1:    0.02763 elapsed seconds
Timing for main: time 0001-01-01_00:18:24 on domain   1:    0.02797 elapsed seconds
Timing for main: time 0001-01-01_00:18:27 on domain   1:    0.02786 elapsed seconds
Timing for main: time 0001-01-01_00:18:30 on domain   1:    0.03664 elapsed seconds
Timing for main: time 0001-01-01_00:18:33 on domain   1:    0.63586 elapsed seconds
Timing for main: time 0001-01-01_00:18:36 on domain   1:    0.11972 elapsed seconds
Timing for main: time 0001-01-01_00:18:39 on domain   1:    0.02804 elapsed seconds
Timing for main: time 0001-01-01_00:18:42 on domain   1:    0.02784 elapsed seconds
Timing for main: time 0001-01-01_00:18:45 on domain   1:    0.03002 elapsed seconds
Timing for main: time 0001-01-01_00:18:48 on domain   1:    0.03997 elapsed seconds
Timing for main: time 0001-01-01_00:18:51 on domain   1:    0.02994 elapsed seconds
Timing for main: time 0001-01-01_00:18:54 on domain   1:    0.02816 elapsed seconds
Timing for main: time 0001-01-01_00:18:57 on domain   1:    0.02793 elapsed seconds
Timing for main: time 0001-01-01_00:19:00 on domain   1:    0.02813 elapsed seconds
Timing for main: time 0001-01-01_00:19:03 on domain   1:    0.02795 elapsed seconds
Timing for main: time 0001-01-01_00:19:06 on domain   1:    0.04814 elapsed seconds
Timing for main: time 0001-01-01_00:19:09 on domain   1:    0.02839 elapsed seconds
Timing for main: time 0001-01-01_00:19:12 on domain   1:    0.09823 elapsed seconds
Timing for main: time 0001-01-01_00:19:15 on domain   1:    0.02797 elapsed seconds
Timing for main: time 0001-01-01_00:19:18 on domain   1:    0.02781 elapsed seconds
Timing for main: time 0001-01-01_00:19:21 on domain   1:    0.02804 elapsed seconds
Timing for main: time 0001-01-01_00:19:24 on domain   1:    0.02763 elapsed seconds
Timing for main: time 0001-01-01_00:19:27 on domain   1:    0.04227 elapsed seconds
Timing for main: time 0001-01-01_00:19:30 on domain   1:    0.02783 elapsed seconds
Timing for main: time 0001-01-01_00:19:33 on domain   1:    0.02790 elapsed seconds
Timing for main: time 0001-01-01_00:19:36 on domain   1:    0.02800 elapsed seconds
Timing for main: time 0001-01-01_00:19:39 on domain   1:    0.02766 elapsed seconds
Timing for main: time 0001-01-01_00:19:42 on domain   1:    0.02881 elapsed seconds
Timing for main: time 0001-01-01_00:19:45 on domain   1:    0.02759 elapsed seconds
Timing for main: time 0001-01-01_00:19:48 on domain   1:    0.02779 elapsed seconds
Timing for main: time 0001-01-01_00:19:51 on domain   1:    0.02758 elapsed seconds
Timing for main: time 0001-01-01_00:19:54 on domain   1:    0.02753 elapsed seconds
Timing for main: time 0001-01-01_00:19:57 on domain   1:    0.02761 elapsed seconds
Timing for main: time 0001-01-01_00:20:00 on domain   1:    0.03040 elapsed seconds
Timing for Writing wrfout_d01_0001-01-01_00:20:00 for domain        1:    0.01256 elapsed seconds
Timing for main: time 0001-01-01_00:20:03 on domain   1:    0.04005 elapsed seconds
Timing for main: time 0001-01-01_00:20:06 on domain   1:    0.02762 elapsed seconds
Timing for main: time 0001-01-01_00:20:09 on domain   1:    0.02729 elapsed seconds
Timing for main: time 0001-01-01_00:20:12 on domain   1:    0.02785 elapsed seconds
Timing for main: time 0001-01-01_00:20:15 on domain   1:    0.02735 elapsed seconds
Timing for main: time 0001-01-01_00:20:18 on domain   1:    0.02783 elapsed seconds
Timing for main: time 0001-01-01_00:20:21 on domain   1:    0.02725 elapsed seconds
Timing for main: time 0001-01-01_00:20:24 on domain   1:    0.02766 elapsed seconds
Timing for main: time 0001-01-01_00:20:27 on domain   1:    0.02728 elapsed seconds
Timing for main: time 0001-01-01_00:20:30 on domain   1:    0.02729 elapsed seconds
Timing for main: time 0001-01-01_00:20:33 on domain   1:    0.02884 elapsed seconds
Timing for main: time 0001-01-01_00:20:36 on domain   1:    0.02713 elapsed seconds
Timing for main: time 0001-01-01_00:20:39 on domain   1:    0.02758 elapsed seconds
Timing for main: time 0001-01-01_00:20:42 on domain   1:    0.02700 elapsed seconds
Timing for main: time 0001-01-01_00:20:45 on domain   1:    0.02744 elapsed seconds
Timing for main: time 0001-01-01_00:20:48 on domain   1:    0.02710 elapsed seconds
Timing for main: time 0001-01-01_00:20:51 on domain   1:    0.02731 elapsed seconds
Timing for main: time 0001-01-01_00:20:54 on domain   1:    0.02692 elapsed seconds
Timing for main: time 0001-01-01_00:20:57 on domain   1:    0.02797 elapsed seconds
Timing for main: time 0001-01-01_00:21:00 on domain   1:    0.15913 elapsed seconds
Timing for main: time 0001-01-01_00:21:03 on domain   1:    0.08049 elapsed seconds
Timing for main: time 0001-01-01_00:21:06 on domain   1:    0.02705 elapsed seconds
Timing for main: time 0001-01-01_00:21:09 on domain   1:    0.02727 elapsed seconds
Timing for main: time 0001-01-01_00:21:12 on domain   1:    0.02716 elapsed seconds
Timing for main: time 0001-01-01_00:21:15 on domain   1:    0.02732 elapsed seconds
Timing for main: time 0001-01-01_00:21:18 on domain   1:    0.02697 elapsed seconds
Timing for main: time 0001-01-01_00:21:21 on domain   1:    0.02852 elapsed seconds
Timing for main: time 0001-01-01_00:21:24 on domain   1:    0.04036 elapsed seconds
Timing for main: time 0001-01-01_00:21:27 on domain   1:    0.02702 elapsed seconds
Timing for main: time 0001-01-01_00:21:30 on domain   1:    0.02733 elapsed seconds
Timing for main: time 0001-01-01_00:21:33 on domain   1:    0.02691 elapsed seconds
Timing for main: time 0001-01-01_00:21:36 on domain   1:    0.03409 elapsed seconds
Timing for main: time 0001-01-01_00:21:39 on domain   1:    0.93495 elapsed seconds
Timing for main: time 0001-01-01_00:21:42 on domain   1:    0.03061 elapsed seconds
Timing for main: time 0001-01-01_00:21:45 on domain   1:    0.02688 elapsed seconds
Timing for main: time 0001-01-01_00:21:48 on domain   1:    0.02687 elapsed seconds
Timing for main: time 0001-01-01_00:21:51 on domain   1:    0.02667 elapsed seconds
Timing for main: time 0001-01-01_00:21:54 on domain   1:    0.02673 elapsed seconds
Timing for main: time 0001-01-01_00:21:57 on domain   1:    0.02670 elapsed seconds
Timing for main: time 0001-01-01_00:22:00 on domain   1:    0.02677 elapsed seconds
Timing for main: time 0001-01-01_00:22:03 on domain   1:    0.02730 elapsed seconds
Timing for main: time 0001-01-01_00:22:06 on domain   1:    0.02714 elapsed seconds
Timing for main: time 0001-01-01_00:22:09 on domain   1:    0.02670 elapsed seconds
Timing for main: time 0001-01-01_00:22:12 on domain   1:    0.02699 elapsed seconds
Timing for main: time 0001-01-01_00:22:15 on domain   1:    0.02659 elapsed seconds
Timing for main: time 0001-01-01_00:22:18 on domain   1:    0.02686 elapsed seconds
Timing for main: time 0001-01-01_00:22:21 on domain   1:    0.02653 elapsed seconds
Timing for main: time 0001-01-01_00:22:24 on domain   1:    0.02678 elapsed seconds
Timing for main: time 0001-01-01_00:22:27 on domain   1:    0.02660 elapsed seconds
Timing for main: time 0001-01-01_00:22:30 on domain   1:    0.02680 elapsed seconds
Timing for main: time 0001-01-01_00:22:33 on domain   1:    0.02664 elapsed seconds
Timing for main: time 0001-01-01_00:22:36 on domain   1:    0.02657 elapsed seconds
Timing for main: time 0001-01-01_00:22:39 on domain   1:    0.02668 elapsed seconds
Timing for main: time 0001-01-01_00:22:42 on domain   1:    0.02659 elapsed seconds
Timing for main: time 0001-01-01_00:22:45 on domain   1:    0.02701 elapsed seconds
Timing for main: time 0001-01-01_00:22:48 on domain   1:    0.02661 elapsed seconds
Timing for main: time 0001-01-01_00:22:51 on domain   1:    0.02733 elapsed seconds
Timing for main: time 0001-01-01_00:22:54 on domain   1:    0.04060 elapsed seconds
Timing for main: time 0001-01-01_00:22:57 on domain   1:    0.02726 elapsed seconds
Timing for main: time 0001-01-01_00:23:00 on domain   1:    0.10090 elapsed seconds
Timing for main: time 0001-01-01_00:23:03 on domain   1:    0.02672 elapsed seconds
Timing for main: time 0001-01-01_00:23:06 on domain   1:    0.02664 elapsed seconds
Timing for main: time 0001-01-01_00:23:09 on domain   1:    0.02682 elapsed seconds
Timing for main: time 0001-01-01_00:23:12 on domain   1:    0.02667 elapsed seconds
Timing for main: time 0001-01-01_00:23:15 on domain   1:    0.02696 elapsed seconds
Timing for main: time 0001-01-01_00:23:18 on domain   1:    0.02925 elapsed seconds
Timing for main: time 0001-01-01_00:23:21 on domain   1:    0.02702 elapsed seconds
Timing for main: time 0001-01-01_00:23:24 on domain   1:    0.02655 elapsed seconds
Timing for main: time 0001-01-01_00:23:27 on domain   1:    0.02689 elapsed seconds
Timing for main: time 0001-01-01_00:23:30 on domain   1:    0.02669 elapsed seconds
Timing for main: time 0001-01-01_00:23:33 on domain   1:    0.02804 elapsed seconds
Timing for main: time 0001-01-01_00:23:36 on domain   1:    0.04004 elapsed seconds
Timing for main: time 0001-01-01_00:23:39 on domain   1:    0.02652 elapsed seconds
Timing for main: time 0001-01-01_00:23:42 on domain   1:    0.02678 elapsed seconds
Timing for main: time 0001-01-01_00:23:45 on domain   1:    0.02650 elapsed seconds
Timing for main: time 0001-01-01_00:23:48 on domain   1:    0.02674 elapsed seconds
Timing for main: time 0001-01-01_00:23:51 on domain   1:    0.02654 elapsed seconds
Timing for main: time 0001-01-01_00:23:54 on domain   1:    0.02660 elapsed seconds
Timing for main: time 0001-01-01_00:23:57 on domain   1:    0.02654 elapsed seconds
Timing for main: time 0001-01-01_00:24:00 on domain   1:    0.02667 elapsed seconds
Timing for main: time 0001-01-01_00:24:03 on domain   1:    0.02674 elapsed seconds
Timing for main: time 0001-01-01_00:24:06 on domain   1:    0.02676 elapsed seconds
Timing for main: time 0001-01-01_00:24:09 on domain   1:    0.02664 elapsed seconds
Timing for main: time 0001-01-01_00:24:12 on domain   1:    0.02650 elapsed seconds
Timing for main: time 0001-01-01_00:24:15 on domain   1:    0.02707 elapsed seconds
Timing for main: time 0001-01-01_00:24:18 on domain   1:    0.02642 elapsed seconds
Timing for main: time 0001-01-01_00:24:21 on domain   1:    0.02765 elapsed seconds
Timing for main: time 0001-01-01_00:24:24 on domain   1:    0.03373 elapsed seconds
Timing for main: time 0001-01-01_00:24:27 on domain   1:    0.03365 elapsed seconds
Timing for main: time 0001-01-01_00:24:30 on domain   1:    0.02715 elapsed seconds
Timing for main: time 0001-01-01_00:24:33 on domain   1:    0.03859 elapsed seconds
Timing for main: time 0001-01-01_00:24:36 on domain   1:    0.02834 elapsed seconds
Timing for main: time 0001-01-01_00:24:39 on domain   1:    0.02659 elapsed seconds
Timing for main: time 0001-01-01_00:24:42 on domain   1:    0.02795 elapsed seconds
Timing for main: time 0001-01-01_00:24:45 on domain   1:    0.75056 elapsed seconds
Timing for main: time 0001-01-01_00:24:48 on domain   1:    0.02708 elapsed seconds
Timing for main: time 0001-01-01_00:24:51 on domain   1:    0.02642 elapsed seconds
Timing for main: time 0001-01-01_00:24:54 on domain   1:    0.02712 elapsed seconds
Timing for main: time 0001-01-01_00:24:57 on domain   1:    0.02662 elapsed seconds
Timing for main: time 0001-01-01_00:25:00 on domain   1:    0.02710 elapsed seconds
Timing for main: time 0001-01-01_00:25:03 on domain   1:    0.04109 elapsed seconds
Timing for main: time 0001-01-01_00:25:06 on domain   1:    0.02662 elapsed seconds
Timing for main: time 0001-01-01_00:25:09 on domain   1:    0.02809 elapsed seconds
Timing for main: time 0001-01-01_00:25:12 on domain   1:    0.02656 elapsed seconds
Timing for main: time 0001-01-01_00:25:15 on domain   1:    0.02696 elapsed seconds
Timing for main: time 0001-01-01_00:25:18 on domain   1:    0.02657 elapsed seconds
Timing for main: time 0001-01-01_00:25:21 on domain   1:    0.02700 elapsed seconds
Timing for main: time 0001-01-01_00:25:24 on domain   1:    0.02699 elapsed seconds
Timing for main: time 0001-01-01_00:25:27 on domain   1:    0.09625 elapsed seconds
Timing for main: time 0001-01-01_00:25:30 on domain   1:    0.02689 elapsed seconds
Timing for main: time 0001-01-01_00:25:33 on domain   1:    0.02644 elapsed seconds
Timing for main: time 0001-01-01_00:25:36 on domain   1:    0.02689 elapsed seconds
Timing for main: time 0001-01-01_00:25:39 on domain   1:    0.02648 elapsed seconds
Timing for main: time 0001-01-01_00:25:42 on domain   1:    0.02660 elapsed seconds
Timing for main: time 0001-01-01_00:25:45 on domain   1:    0.02645 elapsed seconds
Timing for main: time 0001-01-01_00:25:48 on domain   1:    0.02662 elapsed seconds
Timing for main: time 0001-01-01_00:25:51 on domain   1:    0.02659 elapsed seconds
Timing for main: time 0001-01-01_00:25:54 on domain   1:    0.02711 elapsed seconds
Timing for main: time 0001-01-01_00:25:57 on domain   1:    0.02690 elapsed seconds
Timing for main: time 0001-01-01_00:26:00 on domain   1:    0.02665 elapsed seconds
Timing for main: time 0001-01-01_00:26:03 on domain   1:    0.02851 elapsed seconds
Timing for main: time 0001-01-01_00:26:06 on domain   1:    0.03960 elapsed seconds
Timing for main: time 0001-01-01_00:26:09 on domain   1:    0.02669 elapsed seconds
Timing for main: time 0001-01-01_00:26:12 on domain   1:    0.02654 elapsed seconds
Timing for main: time 0001-01-01_00:26:15 on domain   1:    0.02657 elapsed seconds
Timing for main: time 0001-01-01_00:26:18 on domain   1:    0.02651 elapsed seconds
Timing for main: time 0001-01-01_00:26:21 on domain   1:    0.02647 elapsed seconds
Timing for main: time 0001-01-01_00:26:24 on domain   1:    0.02672 elapsed seconds
Timing for main: time 0001-01-01_00:26:27 on domain   1:    0.02636 elapsed seconds
Timing for main: time 0001-01-01_00:26:30 on domain   1:    0.02666 elapsed seconds
Timing for main: time 0001-01-01_00:26:33 on domain   1:    0.02647 elapsed seconds
Timing for main: time 0001-01-01_00:26:36 on domain   1:    0.02686 elapsed seconds
Timing for main: time 0001-01-01_00:26:39 on domain   1:    0.02658 elapsed seconds
Timing for main: time 0001-01-01_00:26:42 on domain   1:    0.02658 elapsed seconds
Timing for main: time 0001-01-01_00:26:45 on domain   1:    0.03908 elapsed seconds
Timing for main: time 0001-01-01_00:26:48 on domain   1:    0.02665 elapsed seconds
Timing for main: time 0001-01-01_00:26:51 on domain   1:    0.02699 elapsed seconds
Timing for main: time 0001-01-01_00:26:54 on domain   1:    0.02629 elapsed seconds
Timing for main: time 0001-01-01_00:26:57 on domain   1:    0.02726 elapsed seconds
Timing for main: time 0001-01-01_00:27:00 on domain   1:    0.03400 elapsed seconds
Timing for main: time 0001-01-01_00:27:03 on domain   1:    0.03398 elapsed seconds
Timing for main: time 0001-01-01_00:27:06 on domain   1:    0.02689 elapsed seconds
Timing for main: time 0001-01-01_00:27:09 on domain   1:    0.02636 elapsed seconds
Timing for main: time 0001-01-01_00:27:12 on domain   1:    0.02678 elapsed seconds
Timing for main: time 0001-01-01_00:27:15 on domain   1:    0.02811 elapsed seconds
Timing for main: time 0001-01-01_00:27:18 on domain   1:    0.03952 elapsed seconds
Timing for main: time 0001-01-01_00:27:21 on domain   1:    0.08401 elapsed seconds
Timing for main: time 0001-01-01_00:27:24 on domain   1:    0.02653 elapsed seconds
Timing for main: time 0001-01-01_00:27:27 on domain   1:    0.02674 elapsed seconds
Timing for main: time 0001-01-01_00:27:30 on domain   1:    0.02643 elapsed seconds
Timing for main: time 0001-01-01_00:27:33 on domain   1:    0.02701 elapsed seconds
Timing for main: time 0001-01-01_00:27:36 on domain   1:    0.02651 elapsed seconds
Timing for main: time 0001-01-01_00:27:39 on domain   1:    0.02652 elapsed seconds
Timing for main: time 0001-01-01_00:27:42 on domain   1:    0.02638 elapsed seconds
Timing for main: time 0001-01-01_00:27:45 on domain   1:    0.02639 elapsed seconds
Timing for main: time 0001-01-01_00:27:48 on domain   1:    0.02760 elapsed seconds
Timing for main: time 0001-01-01_00:27:51 on domain   1:    0.02638 elapsed seconds
Timing for main: time 0001-01-01_00:27:54 on domain   1:    0.02673 elapsed seconds
Timing for main: time 0001-01-01_00:27:57 on domain   1:    0.02647 elapsed seconds
Timing for main: time 0001-01-01_00:28:00 on domain   1:    0.02689 elapsed seconds
Timing for main: time 0001-01-01_00:28:03 on domain   1:    0.02645 elapsed seconds
Timing for main: time 0001-01-01_00:28:06 on domain   1:    0.02679 elapsed seconds
Timing for main: time 0001-01-01_00:28:09 on domain   1:    0.13363 elapsed seconds
Timing for main: time 0001-01-01_00:28:12 on domain   1:    0.71586 elapsed seconds
Timing for main: time 0001-01-01_00:28:15 on domain   1:    0.06868 elapsed seconds
Timing for main: time 0001-01-01_00:28:18 on domain   1:    0.03346 elapsed seconds
Timing for main: time 0001-01-01_00:28:21 on domain   1:    0.03379 elapsed seconds
Timing for main: time 0001-01-01_00:28:24 on domain   1:    0.03242 elapsed seconds
Timing for main: time 0001-01-01_00:28:27 on domain   1:    0.02805 elapsed seconds
Timing for main: time 0001-01-01_00:28:30 on domain   1:    0.14315 elapsed seconds
Timing for main: time 0001-01-01_00:28:33 on domain   1:    0.04224 elapsed seconds
Timing for main: time 0001-01-01_00:28:36 on domain   1:    0.02870 elapsed seconds
Timing for main: time 0001-01-01_00:28:39 on domain   1:    0.43790 elapsed seconds
Timing for main: time 0001-01-01_00:28:42 on domain   1:    0.03195 elapsed seconds
Timing for main: time 0001-01-01_00:28:45 on domain   1:    0.02709 elapsed seconds
Timing for main: time 0001-01-01_00:28:48 on domain   1:    0.02659 elapsed seconds
Timing for main: time 0001-01-01_00:28:51 on domain   1:    0.02691 elapsed seconds
Timing for main: time 0001-01-01_00:28:54 on domain   1:    0.02662 elapsed seconds
Timing for main: time 0001-01-01_00:28:57 on domain   1:    0.02645 elapsed seconds
Timing for main: time 0001-01-01_00:29:00 on domain   1:    0.02655 elapsed seconds
Timing for main: time 0001-01-01_00:29:03 on domain   1:    0.02668 elapsed seconds
Timing for main: time 0001-01-01_00:29:06 on domain   1:    0.02652 elapsed seconds
Timing for main: time 0001-01-01_00:29:09 on domain   1:    0.02660 elapsed seconds
Timing for main: time 0001-01-01_00:29:12 on domain   1:    0.02692 elapsed seconds
Timing for main: time 0001-01-01_00:29:15 on domain   1:    0.02654 elapsed seconds
Timing for main: time 0001-01-01_00:29:18 on domain   1:    0.02861 elapsed seconds
Timing for main: time 0001-01-01_00:29:21 on domain   1:    0.02716 elapsed seconds
Timing for main: time 0001-01-01_00:29:24 on domain   1:    0.02688 elapsed seconds
Timing for main: time 0001-01-01_00:29:27 on domain   1:    0.02689 elapsed seconds
Timing for main: time 0001-01-01_00:29:30 on domain   1:    0.02680 elapsed seconds
Timing for main: time 0001-01-01_00:29:33 on domain   1:    0.02636 elapsed seconds
Timing for main: time 0001-01-01_00:29:36 on domain   1:    0.03907 elapsed seconds
Timing for main: time 0001-01-01_00:29:39 on domain   1:    0.02690 elapsed seconds
Timing for main: time 0001-01-01_00:29:42 on domain   1:    0.02663 elapsed seconds
Timing for main: time 0001-01-01_00:29:45 on domain   1:    0.02698 elapsed seconds
Timing for main: time 0001-01-01_00:29:48 on domain   1:    0.02652 elapsed seconds
Timing for main: time 0001-01-01_00:29:51 on domain   1:    0.02690 elapsed seconds
Timing for main: time 0001-01-01_00:29:54 on domain   1:    0.02636 elapsed seconds
Timing for main: time 0001-01-01_00:29:57 on domain   1:    0.02668 elapsed seconds
Timing for main: time 0001-01-01_00:30:00 on domain   1:    0.02663 elapsed seconds
Timing for Writing wrfout_d01_0001-01-01_00:30:00 for domain        1:    0.01510 elapsed seconds
Timing for main: time 0001-01-01_00:30:03 on domain   1:    0.04150 elapsed seconds
Timing for main: time 0001-01-01_00:30:06 on domain   1:    0.02689 elapsed seconds
Timing for main: time 0001-01-01_00:30:09 on domain   1:    0.02649 elapsed seconds
Timing for main: time 0001-01-01_00:30:12 on domain   1:    0.02669 elapsed seconds
Timing for main: time 0001-01-01_00:30:15 on domain   1:    0.02629 elapsed seconds
Timing for main: time 0001-01-01_00:30:18 on domain   1:    0.02680 elapsed seconds
Timing for main: time 0001-01-01_00:30:21 on domain   1:    0.02653 elapsed seconds
Timing for main: time 0001-01-01_00:30:24 on domain   1:    0.02742 elapsed seconds
Timing for main: time 0001-01-01_00:30:27 on domain   1:    0.02661 elapsed seconds
Timing for main: time 0001-01-01_00:30:30 on domain   1:    0.02820 elapsed seconds
Timing for main: time 0001-01-01_00:30:33 on domain   1:    0.05084 elapsed seconds
Timing for main: time 0001-01-01_00:30:36 on domain   1:    0.13988 elapsed seconds
Timing for main: time 0001-01-01_00:30:39 on domain   1:    0.57027 elapsed seconds
Timing for main: time 0001-01-01_00:30:42 on domain   1:    0.02682 elapsed seconds
Timing for main: time 0001-01-01_00:30:45 on domain   1:    0.02633 elapsed seconds
Timing for main: time 0001-01-01_00:30:48 on domain   1:    0.02681 elapsed seconds
Timing for main: time 0001-01-01_00:30:51 on domain   1:    0.02634 elapsed seconds
Timing for main: time 0001-01-01_00:30:54 on domain   1:    0.02679 elapsed seconds
Timing for main: time 0001-01-01_00:30:57 on domain   1:    0.02647 elapsed seconds
Timing for main: time 0001-01-01_00:31:00 on domain   1:    0.02656 elapsed seconds
Timing for main: time 0001-01-01_00:31:03 on domain   1:    0.02694 elapsed seconds
Timing for main: time 0001-01-01_00:31:06 on domain   1:    0.10693 elapsed seconds
Timing for main: time 0001-01-01_00:31:09 on domain   1:    0.02702 elapsed seconds
Timing for main: time 0001-01-01_00:31:12 on domain   1:    0.02749 elapsed seconds
Timing for main: time 0001-01-01_00:31:15 on domain   1:    0.02699 elapsed seconds
Timing for main: time 0001-01-01_00:31:18 on domain   1:    0.02754 elapsed seconds
Timing for main: time 0001-01-01_00:31:21 on domain   1:    0.02709 elapsed seconds
Timing for main: time 0001-01-01_00:31:24 on domain   1:    0.02734 elapsed seconds
Timing for main: time 0001-01-01_00:31:27 on domain   1:    0.02706 elapsed seconds
Timing for main: time 0001-01-01_00:31:30 on domain   1:    0.02706 elapsed seconds
Timing for main: time 0001-01-01_00:31:33 on domain   1:    0.02702 elapsed seconds
Timing for main: time 0001-01-01_00:31:36 on domain   1:    0.02706 elapsed seconds
Timing for main: time 0001-01-01_00:31:39 on domain   1:    0.02719 elapsed seconds
Timing for main: time 0001-01-01_00:31:42 on domain   1:    0.02724 elapsed seconds
Timing for main: time 0001-01-01_00:31:45 on domain   1:    0.02758 elapsed seconds
Timing for main: time 0001-01-01_00:31:48 on domain   1:    0.02717 elapsed seconds
Timing for main: time 0001-01-01_00:31:51 on domain   1:    0.02923 elapsed seconds
Timing for main: time 0001-01-01_00:31:54 on domain   1:    0.04002 elapsed seconds
Timing for main: time 0001-01-01_00:31:57 on domain   1:    0.02714 elapsed seconds
Timing for main: time 0001-01-01_00:32:00 on domain   1:    0.02757 elapsed seconds
Timing for main: time 0001-01-01_00:32:03 on domain   1:    0.02713 elapsed seconds
Timing for main: time 0001-01-01_00:32:06 on domain   1:    0.02740 elapsed seconds
Timing for main: time 0001-01-01_00:32:09 on domain   1:    0.02714 elapsed seconds
Timing for main: time 0001-01-01_00:32:12 on domain   1:    0.02742 elapsed seconds
Timing for main: time 0001-01-01_00:32:15 on domain   1:    0.02706 elapsed seconds
Timing for main: time 0001-01-01_00:32:18 on domain   1:    0.02721 elapsed seconds
Timing for main: time 0001-01-01_00:32:21 on domain   1:    0.02712 elapsed seconds
Timing for main: time 0001-01-01_00:32:24 on domain   1:    0.02700 elapsed seconds
Timing for main: time 0001-01-01_00:32:27 on domain   1:    0.02728 elapsed seconds
Timing for main: time 0001-01-01_00:32:30 on domain   1:    0.02711 elapsed seconds
Timing for main: time 0001-01-01_00:32:33 on domain   1:    0.02745 elapsed seconds
Timing for main: time 0001-01-01_00:32:36 on domain   1:    0.02714 elapsed seconds
Timing for main: time 0001-01-01_00:32:39 on domain   1:    0.02745 elapsed seconds
Timing for main: time 0001-01-01_00:32:42 on domain   1:    0.02702 elapsed seconds
Timing for main: time 0001-01-01_00:32:45 on domain   1:    0.02797 elapsed seconds
Timing for main: time 0001-01-01_00:32:48 on domain   1:    0.02720 elapsed seconds
Timing for main: time 0001-01-01_00:32:51 on domain   1:    0.02733 elapsed seconds
Timing for main: time 0001-01-01_00:32:54 on domain   1:    0.02750 elapsed seconds
Timing for main: time 0001-01-01_00:32:57 on domain   1:    0.04265 elapsed seconds
Timing for main: time 0001-01-01_00:33:00 on domain   1:    3.65783 elapsed seconds
Timing for main: time 0001-01-01_00:33:03 on domain   1:    0.83062 elapsed seconds
Timing for main: time 0001-01-01_00:33:06 on domain   1:    0.02656 elapsed seconds
Timing for main: time 0001-01-01_00:33:09 on domain   1:    0.02673 elapsed seconds
Timing for main: time 0001-01-01_00:33:12 on domain   1:    0.02702 elapsed seconds
Timing for main: time 0001-01-01_00:33:15 on domain   1:    0.02658 elapsed seconds
Timing for main: time 0001-01-01_00:33:18 on domain   1:    0.02701 elapsed seconds
Timing for main: time 0001-01-01_00:33:21 on domain   1:    0.02665 elapsed seconds
Timing for main: time 0001-01-01_00:33:24 on domain   1:    0.02699 elapsed seconds
Timing for main: time 0001-01-01_00:33:27 on domain   1:    0.02662 elapsed seconds
Timing for main: time 0001-01-01_00:33:30 on domain   1:    0.02716 elapsed seconds
Timing for main: time 0001-01-01_00:33:33 on domain   1:    0.02653 elapsed seconds
Timing for main: time 0001-01-01_00:33:36 on domain   1:    0.02710 elapsed seconds
Timing for main: time 0001-01-01_00:33:39 on domain   1:    0.02667 elapsed seconds
Timing for main: time 0001-01-01_00:33:42 on domain   1:    0.02685 elapsed seconds
Timing for main: time 0001-01-01_00:33:45 on domain   1:    0.02670 elapsed seconds
Timing for main: time 0001-01-01_00:33:48 on domain   1:    0.02821 elapsed seconds
Timing for main: time 0001-01-01_00:33:51 on domain   1:    0.03482 elapsed seconds
Timing for main: time 0001-01-01_00:33:54 on domain   1:    0.03162 elapsed seconds
Timing for main: time 0001-01-01_00:33:57 on domain   1:    0.02698 elapsed seconds
Timing for main: time 0001-01-01_00:34:00 on domain   1:    0.02683 elapsed seconds
Timing for main: time 0001-01-01_00:34:03 on domain   1:    0.02680 elapsed seconds
Timing for main: time 0001-01-01_00:34:06 on domain   1:    0.02673 elapsed seconds
Timing for main: time 0001-01-01_00:34:09 on domain   1:    0.02689 elapsed seconds
Timing for main: time 0001-01-01_00:34:12 on domain   1:    0.02671 elapsed seconds
Timing for main: time 0001-01-01_00:34:15 on domain   1:    0.02660 elapsed seconds
Timing for main: time 0001-01-01_00:34:18 on domain   1:    0.02720 elapsed seconds
Timing for main: time 0001-01-01_00:34:21 on domain   1:    0.02675 elapsed seconds
Timing for main: time 0001-01-01_00:34:24 on domain   1:    0.02696 elapsed seconds
Timing for main: time 0001-01-01_00:34:27 on domain   1:    0.02661 elapsed seconds
Timing for main: time 0001-01-01_00:34:30 on domain   1:    0.02728 elapsed seconds
Timing for main: time 0001-01-01_00:34:33 on domain   1:    0.02678 elapsed seconds
Timing for main: time 0001-01-01_00:34:36 on domain   1:    0.02703 elapsed seconds
Timing for main: time 0001-01-01_00:34:39 on domain   1:    0.08508 elapsed seconds
Timing for main: time 0001-01-01_00:34:42 on domain   1:    0.04158 elapsed seconds
Timing for main: time 0001-01-01_00:34:45 on domain   1:    0.03368 elapsed seconds
Timing for main: time 0001-01-01_00:34:48 on domain   1:    0.02713 elapsed seconds
Timing for main: time 0001-01-01_00:34:51 on domain   1:    0.03396 elapsed seconds
Timing for main: time 0001-01-01_00:34:54 on domain   1:    0.03497 elapsed seconds
Timing for main: time 0001-01-01_00:34:57 on domain   1:    0.02686 elapsed seconds
Timing for main: time 0001-01-01_00:35:00 on domain   1:    0.02664 elapsed seconds
Timing for main: time 0001-01-01_00:35:03 on domain   1:    0.02695 elapsed seconds
Timing for main: time 0001-01-01_00:35:06 on domain   1:    0.02665 elapsed seconds
Timing for main: time 0001-01-01_00:35:09 on domain   1:    0.02724 elapsed seconds
Timing for main: time 0001-01-01_00:35:12 on domain   1:    0.02672 elapsed seconds
Timing for main: time 0001-01-01_00:35:15 on domain   1:    0.02690 elapsed seconds
Timing for main: time 0001-01-01_00:35:18 on domain   1:    0.02818 elapsed seconds
Timing for main: time 0001-01-01_00:35:21 on domain   1:    0.03456 elapsed seconds
Timing for main: time 0001-01-01_00:35:24 on domain   1:    0.02704 elapsed seconds
Timing for main: time 0001-01-01_00:35:27 on domain   1:    0.02639 elapsed seconds
Timing for main: time 0001-01-01_00:35:30 on domain   1:    0.02683 elapsed seconds
Timing for main: time 0001-01-01_00:35:33 on domain   1:    0.02651 elapsed seconds
Timing for main: time 0001-01-01_00:35:36 on domain   1:    0.02833 elapsed seconds
Timing for main: time 0001-01-01_00:35:39 on domain   1:    0.13329 elapsed seconds
Timing for main: time 0001-01-01_00:35:42 on domain   1:    0.59386 elapsed seconds
Timing for main: time 0001-01-01_00:35:45 on domain   1:    0.02781 elapsed seconds
Timing for main: time 0001-01-01_00:35:48 on domain   1:    0.02643 elapsed seconds
Timing for main: time 0001-01-01_00:35:51 on domain   1:    0.02691 elapsed seconds
Timing for main: time 0001-01-01_00:35:54 on domain   1:    0.02623 elapsed seconds
Timing for main: time 0001-01-01_00:35:57 on domain   1:    0.02665 elapsed seconds
Timing for main: time 0001-01-01_00:36:00 on domain   1:    0.02619 elapsed seconds
Timing for main: time 0001-01-01_00:36:03 on domain   1:    0.02652 elapsed seconds
Timing for main: time 0001-01-01_00:36:06 on domain   1:    0.02616 elapsed seconds
Timing for main: time 0001-01-01_00:36:09 on domain   1:    0.02615 elapsed seconds
Timing for main: time 0001-01-01_00:36:12 on domain   1:    0.02621 elapsed seconds
Timing for main: time 0001-01-01_00:36:15 on domain   1:    0.02611 elapsed seconds
Timing for main: time 0001-01-01_00:36:18 on domain   1:    0.02611 elapsed seconds
Timing for main: time 0001-01-01_00:36:21 on domain   1:    0.02609 elapsed seconds
Timing for main: time 0001-01-01_00:36:24 on domain   1:    0.02643 elapsed seconds
Timing for main: time 0001-01-01_00:36:27 on domain   1:    0.02601 elapsed seconds
Timing for main: time 0001-01-01_00:36:30 on domain   1:    0.02607 elapsed seconds
Timing for main: time 0001-01-01_00:36:33 on domain   1:    0.02603 elapsed seconds
Timing for main: time 0001-01-01_00:36:36 on domain   1:    0.02630 elapsed seconds
Timing for main: time 0001-01-01_00:36:39 on domain   1:    0.02586 elapsed seconds
Timing for main: time 0001-01-01_00:36:42 on domain   1:    0.02646 elapsed seconds
Timing for main: time 0001-01-01_00:36:45 on domain   1:    0.02777 elapsed seconds
Timing for main: time 0001-01-01_00:36:48 on domain   1:    0.03890 elapsed seconds
Timing for main: time 0001-01-01_00:36:51 on domain   1:    0.02641 elapsed seconds
Timing for main: time 0001-01-01_00:36:54 on domain   1:    0.02593 elapsed seconds
Timing for main: time 0001-01-01_00:36:57 on domain   1:    0.02601 elapsed seconds
Timing for main: time 0001-01-01_00:37:00 on domain   1:    0.02578 elapsed seconds
Timing for main: time 0001-01-01_00:37:03 on domain   1:    0.02619 elapsed seconds
Timing for main: time 0001-01-01_00:37:06 on domain   1:    0.03953 elapsed seconds
Timing for main: time 0001-01-01_00:37:09 on domain   1:    0.02574 elapsed seconds
Timing for main: time 0001-01-01_00:37:12 on domain   1:    0.02579 elapsed seconds
Timing for main: time 0001-01-01_00:37:15 on domain   1:    0.02585 elapsed seconds
Timing for main: time 0001-01-01_00:37:18 on domain   1:    0.02594 elapsed seconds
Timing for main: time 0001-01-01_00:37:21 on domain   1:    0.02665 elapsed seconds
Timing for main: time 0001-01-01_00:37:24 on domain   1:    0.25420 elapsed seconds
Timing for main: time 0001-01-01_00:37:27 on domain   1:    0.03795 elapsed seconds
Timing for main: time 0001-01-01_00:37:30 on domain   1:    0.02698 elapsed seconds
Timing for main: time 0001-01-01_00:37:33 on domain   1:    0.02555 elapsed seconds
Timing for main: time 0001-01-01_00:37:36 on domain   1:    0.02531 elapsed seconds
Timing for main: time 0001-01-01_00:37:39 on domain   1:    0.02561 elapsed seconds
Timing for main: time 0001-01-01_00:37:42 on domain   1:    0.04539 elapsed seconds
Timing for main: time 0001-01-01_00:37:45 on domain   1:    0.02533 elapsed seconds
Timing for main: time 0001-01-01_00:37:48 on domain   1:    0.02569 elapsed seconds
Timing for main: time 0001-01-01_00:37:51 on domain   1:    0.02541 elapsed seconds
Timing for main: time 0001-01-01_00:37:54 on domain   1:    0.02565 elapsed seconds
Timing for main: time 0001-01-01_00:37:57 on domain   1:    0.02547 elapsed seconds
Timing for main: time 0001-01-01_00:38:00 on domain   1:    0.02565 elapsed seconds
Timing for main: time 0001-01-01_00:38:03 on domain   1:    0.02547 elapsed seconds
Timing for main: time 0001-01-01_00:38:06 on domain   1:    0.02554 elapsed seconds
Timing for main: time 0001-01-01_00:38:09 on domain   1:    0.02542 elapsed seconds
Timing for main: time 0001-01-01_00:38:12 on domain   1:    0.02745 elapsed seconds
Timing for main: time 0001-01-01_00:38:15 on domain   1:    0.02557 elapsed seconds
Timing for main: time 0001-01-01_00:38:18 on domain   1:    0.02568 elapsed seconds
Timing for main: time 0001-01-01_00:38:21 on domain   1:    0.02612 elapsed seconds
Timing for main: time 0001-01-01_00:38:24 on domain   1:    0.02541 elapsed seconds
Timing for main: time 0001-01-01_00:38:27 on domain   1:    0.02561 elapsed seconds
Timing for main: time 0001-01-01_00:38:30 on domain   1:    0.03977 elapsed seconds
Timing for main: time 0001-01-01_00:38:33 on domain   1:    0.02621 elapsed seconds
Timing for main: time 0001-01-01_00:38:36 on domain   1:    0.02554 elapsed seconds
Timing for main: time 0001-01-01_00:38:39 on domain   1:    0.02583 elapsed seconds
Timing for main: time 0001-01-01_00:38:42 on domain   1:    0.02556 elapsed seconds
Timing for main: time 0001-01-01_00:38:45 on domain   1:    0.02566 elapsed seconds
Timing for main: time 0001-01-01_00:38:48 on domain   1:    0.02546 elapsed seconds
Timing for main: time 0001-01-01_00:38:51 on domain   1:    0.02562 elapsed seconds
Timing for main: time 0001-01-01_00:38:54 on domain   1:    0.02551 elapsed seconds
Timing for main: time 0001-01-01_00:38:57 on domain   1:    0.14053 elapsed seconds
Timing for main: time 0001-01-01_00:39:00 on domain   1:    0.62122 elapsed seconds
Timing for main: time 0001-01-01_00:39:03 on domain   1:    0.03907 elapsed seconds
Timing for main: time 0001-01-01_00:39:06 on domain   1:    0.02583 elapsed seconds
Timing for main: time 0001-01-01_00:39:09 on domain   1:    0.02551 elapsed seconds
Timing for main: time 0001-01-01_00:39:12 on domain   1:    0.02582 elapsed seconds
Timing for main: time 0001-01-01_00:39:15 on domain   1:    0.02581 elapsed seconds
Timing for main: time 0001-01-01_00:39:18 on domain   1:    0.02570 elapsed seconds
Timing for main: time 0001-01-01_00:39:21 on domain   1:    0.02840 elapsed seconds
Timing for main: time 0001-01-01_00:39:24 on domain   1:    0.02562 elapsed seconds
Timing for main: time 0001-01-01_00:39:27 on domain   1:    0.02612 elapsed seconds
Timing for main: time 0001-01-01_00:39:30 on domain   1:    0.02560 elapsed seconds
Timing for main: time 0001-01-01_00:39:33 on domain   1:    0.02590 elapsed seconds
Timing for main: time 0001-01-01_00:39:36 on domain   1:    0.02552 elapsed seconds
Timing for main: time 0001-01-01_00:39:39 on domain   1:    0.02564 elapsed seconds
Timing for main: time 0001-01-01_00:39:42 on domain   1:    0.02555 elapsed seconds
Timing for main: time 0001-01-01_00:39:45 on domain   1:    0.02586 elapsed seconds
Timing for main: time 0001-01-01_00:39:48 on domain   1:    0.02567 elapsed seconds
Timing for main: time 0001-01-01_00:39:51 on domain   1:    0.03264 elapsed seconds
Timing for main: time 0001-01-01_00:39:54 on domain   1:    0.08991 elapsed seconds
Timing for main: time 0001-01-01_00:39:57 on domain   1:    0.02567 elapsed seconds
Timing for main: time 0001-01-01_00:40:00 on domain   1:    0.02634 elapsed seconds
Timing for Writing wrfout_d01_0001-01-01_00:40:00 for domain        1:    0.01309 elapsed seconds
Timing for main: time 0001-01-01_00:40:03 on domain   1:    0.04529 elapsed seconds
Timing for main: time 0001-01-01_00:40:06 on domain   1:    0.03283 elapsed seconds
Timing for main: time 0001-01-01_00:40:09 on domain   1:    0.02591 elapsed seconds
Timing for main: time 0001-01-01_00:40:12 on domain   1:    0.02565 elapsed seconds
Timing for main: time 0001-01-01_00:40:15 on domain   1:    0.02579 elapsed seconds
Timing for main: time 0001-01-01_00:40:18 on domain   1:    0.02555 elapsed seconds
Timing for main: time 0001-01-01_00:40:21 on domain   1:    0.02611 elapsed seconds
Timing for main: time 0001-01-01_00:40:24 on domain   1:    0.02552 elapsed seconds
Timing for main: time 0001-01-01_00:40:27 on domain   1:    0.02626 elapsed seconds
Timing for main: time 0001-01-01_00:40:30 on domain   1:    0.02557 elapsed seconds
Timing for main: time 0001-01-01_00:40:33 on domain   1:    0.02581 elapsed seconds
Timing for main: time 0001-01-01_00:40:36 on domain   1:    0.02596 elapsed seconds
Timing for main: time 0001-01-01_00:40:39 on domain   1:    0.02583 elapsed seconds
Timing for main: time 0001-01-01_00:40:42 on domain   1:    0.02570 elapsed seconds
Timing for main: time 0001-01-01_00:40:45 on domain   1:    0.02568 elapsed seconds
Timing for main: time 0001-01-01_00:40:48 on domain   1:    0.04120 elapsed seconds
Timing for main: time 0001-01-01_00:40:51 on domain   1:    0.02551 elapsed seconds
Timing for main: time 0001-01-01_00:40:54 on domain   1:    0.02553 elapsed seconds
Timing for main: time 0001-01-01_00:40:57 on domain   1:    0.02544 elapsed seconds
Timing for main: time 0001-01-01_00:41:00 on domain   1:    0.02574 elapsed seconds
Timing for main: time 0001-01-01_00:41:03 on domain   1:    0.02557 elapsed seconds
Timing for main: time 0001-01-01_00:41:06 on domain   1:    0.02578 elapsed seconds
Timing for main: time 0001-01-01_00:41:09 on domain   1:    0.02563 elapsed seconds
Timing for main: time 0001-01-01_00:41:12 on domain   1:    0.02574 elapsed seconds
Timing for main: time 0001-01-01_00:41:15 on domain   1:    0.02537 elapsed seconds
Timing for main: time 0001-01-01_00:41:18 on domain   1:    0.02567 elapsed seconds
Timing for main: time 0001-01-01_00:41:21 on domain   1:    0.02545 elapsed seconds
Timing for main: time 0001-01-01_00:41:24 on domain   1:    0.02587 elapsed seconds
Timing for main: time 0001-01-01_00:41:27 on domain   1:    0.02541 elapsed seconds
Timing for main: time 0001-01-01_00:41:30 on domain   1:    0.02570 elapsed seconds
Timing for main: time 0001-01-01_00:41:33 on domain   1:    0.02543 elapsed seconds
Timing for main: time 0001-01-01_00:41:36 on domain   1:    0.02580 elapsed seconds
Timing for main: time 0001-01-01_00:41:39 on domain   1:    0.02530 elapsed seconds
Timing for main: time 0001-01-01_00:41:42 on domain   1:    0.03599 elapsed seconds
Timing for main: time 0001-01-01_00:41:45 on domain   1:    0.03170 elapsed seconds
Timing for main: time 0001-01-01_00:41:48 on domain   1:    0.09011 elapsed seconds
Timing for main: time 0001-01-01_00:41:51 on domain   1:    0.02554 elapsed seconds
Timing for main: time 0001-01-01_00:41:54 on domain   1:    0.02539 elapsed seconds
Timing for main: time 0001-01-01_00:41:57 on domain   1:    0.02541 elapsed seconds
Timing for main: time 0001-01-01_00:42:00 on domain   1:    0.02694 elapsed seconds
Timing for main: time 0001-01-01_00:42:03 on domain   1:    0.02547 elapsed seconds
Timing for main: time 0001-01-01_00:42:06 on domain   1:    0.02570 elapsed seconds
Timing for main: time 0001-01-01_00:42:09 on domain   1:    0.02544 elapsed seconds
Timing for main: time 0001-01-01_00:42:12 on domain   1:    0.02588 elapsed seconds
Timing for main: time 0001-01-01_00:42:15 on domain   1:    0.02554 elapsed seconds
Timing for main: time 0001-01-01_00:42:18 on domain   1:    0.02608 elapsed seconds
Timing for main: time 0001-01-01_00:42:21 on domain   1:    0.02578 elapsed seconds
Timing for main: time 0001-01-01_00:42:24 on domain   1:    0.02588 elapsed seconds
Timing for main: time 0001-01-01_00:42:27 on domain   1:    0.02702 elapsed seconds
Timing for main: time 0001-01-01_00:42:30 on domain   1:    0.49839 elapsed seconds
Timing for main: time 0001-01-01_00:42:33 on domain   1:    0.25219 elapsed seconds
Timing for main: time 0001-01-01_00:42:36 on domain   1:    0.02594 elapsed seconds
Timing for main: time 0001-01-01_00:42:39 on domain   1:    0.02547 elapsed seconds
Timing for main: time 0001-01-01_00:42:42 on domain   1:    0.02648 elapsed seconds
Timing for main: time 0001-01-01_00:42:45 on domain   1:    0.02540 elapsed seconds
Timing for main: time 0001-01-01_00:42:48 on domain   1:    0.02648 elapsed seconds
Timing for main: time 0001-01-01_00:42:51 on domain   1:    0.03192 elapsed seconds
Timing for main: time 0001-01-01_00:42:54 on domain   1:    0.03333 elapsed seconds
Timing for main: time 0001-01-01_00:42:57 on domain   1:    0.02569 elapsed seconds
Timing for main: time 0001-01-01_00:43:00 on domain   1:    0.02550 elapsed seconds
Timing for main: time 0001-01-01_00:43:03 on domain   1:    0.02568 elapsed seconds
Timing for main: time 0001-01-01_00:43:06 on domain   1:    0.02541 elapsed seconds
Timing for main: time 0001-01-01_00:43:09 on domain   1:    0.03919 elapsed seconds
Timing for main: time 0001-01-01_00:43:12 on domain   1:    0.02532 elapsed seconds
Timing for main: time 0001-01-01_00:43:15 on domain   1:    0.02546 elapsed seconds
Timing for main: time 0001-01-01_00:43:18 on domain   1:    0.02551 elapsed seconds
Timing for main: time 0001-01-01_00:43:21 on domain   1:    0.02795 elapsed seconds
Timing for main: time 0001-01-01_00:43:24 on domain   1:    0.02545 elapsed seconds
Timing for main: time 0001-01-01_00:43:27 on domain   1:    0.02523 elapsed seconds
Timing for main: time 0001-01-01_00:43:30 on domain   1:    0.02540 elapsed seconds
Timing for main: time 0001-01-01_00:43:33 on domain   1:    0.02525 elapsed seconds
Timing for main: time 0001-01-01_00:43:36 on domain   1:    0.02529 elapsed seconds
Timing for main: time 0001-01-01_00:43:39 on domain   1:    0.02520 elapsed seconds
Timing for main: time 0001-01-01_00:43:42 on domain   1:    0.02559 elapsed seconds
Timing for main: time 0001-01-01_00:43:45 on domain   1:    0.02538 elapsed seconds
Timing for main: time 0001-01-01_00:43:48 on domain   1:    0.02542 elapsed seconds
Timing for main: time 0001-01-01_00:43:51 on domain   1:    0.02527 elapsed seconds
Timing for main: time 0001-01-01_00:43:54 on domain   1:    0.02539 elapsed seconds
Timing for main: time 0001-01-01_00:43:57 on domain   1:    0.02527 elapsed seconds
Timing for main: time 0001-01-01_00:44:00 on domain   1:    0.02557 elapsed seconds
[...]
Timing for main: time 0001-01-01_00:48:21 on domain   1:    0.02522 elapsed seconds
Timing for main: time 0001-01-01_00:48:24 on domain   1:    0.02512 elapsed seconds
Timing for main: time 0001-01-01_00:48:27 on domain   1:    0.02520 elapsed seconds
Timing for main: time 0001-01-01_00:48:30 on domain   1:    0.02518 elapsed seconds
Timing for main: time 0001-01-01_00:48:33 on domain   1:    0.02513 elapsed seconds
Timing for main: time 0001-01-01_00:48:36 on domain   1:    0.02526 elapsed seconds
Timing for main: time 0001-01-01_00:48:39 on domain   1:    0.02527 elapsed seconds
Timing for main: time 0001-01-01_00:48:42 on domain   1:    0.02531 elapsed seconds
Timing for main: time 0001-01-01_00:48:45 on domain   1:    0.02516 elapsed seconds
Timing for main: time 0001-01-01_00:48:48 on domain   1:    0.02566 elapsed seconds
Timing for main: time 0001-01-01_00:48:51 on domain   1:    0.02524 elapsed seconds
Timing for main: time 0001-01-01_00:48:54 on domain   1:    0.02539 elapsed seconds
Timing for main: time 0001-01-01_00:48:57 on domain   1:    0.02550 elapsed seconds
Timing for main: time 0001-01-01_00:49:00 on domain   1:    0.02561 elapsed seconds
Timing for main: time 0001-01-01_00:49:03 on domain   1:    0.02528 elapsed seconds
Timing for main: time 0001-01-01_00:49:06 on domain   1:    0.02524 elapsed seconds
Timing for main: time 0001-01-01_00:49:09 on domain   1:    0.02508 elapsed seconds
Timing for main: time 0001-01-01_00:49:12 on domain   1:    0.02541 elapsed seconds
Timing for main: time 0001-01-01_00:49:15 on domain   1:    0.03904 elapsed seconds
Timing for main: time 0001-01-01_00:49:18 on domain   1:    0.02830 elapsed seconds
Timing for main: time 0001-01-01_00:49:21 on domain   1:    0.02783 elapsed seconds
Timing for main: time 0001-01-01_00:49:24 on domain   1:    0.02693 elapsed seconds
Timing for main: time 0001-01-01_00:49:27 on domain   1:    0.03131 elapsed seconds
Timing for main: time 0001-01-01_00:49:30 on domain   1:    0.04292 elapsed seconds
Timing for main: time 0001-01-01_00:49:33 on domain   1:    0.03331 elapsed seconds
Timing for main: time 0001-01-01_00:49:36 on domain   1:    0.03228 elapsed seconds
Timing for main: time 0001-01-01_00:49:39 on domain   1:    0.15550 elapsed seconds
Timing for main: time 0001-01-01_00:49:42 on domain   1:    0.52003 elapsed seconds
Timing for main: time 0001-01-01_00:49:45 on domain   1:    0.33221 elapsed seconds
Timing for main: time 0001-01-01_00:49:48 on domain   1:    0.02553 elapsed seconds
Timing for main: time 0001-01-01_00:49:51 on domain   1:    0.02551 elapsed seconds
Timing for main: time 0001-01-01_00:49:54 on domain   1:    0.02542 elapsed seconds
Timing for main: time 0001-01-01_00:49:57 on domain   1:    0.02597 elapsed seconds
Timing for main: time 0001-01-01_00:50:00 on domain   1:    0.02531 elapsed seconds
Timing for Writing wrfout_d01_0001-01-01_00:50:00 for domain        1:    0.01078 elapsed seconds
Timing for main: time 0001-01-01_00:50:03 on domain   1:    0.03610 elapsed seconds
Timing for main: time 0001-01-01_00:50:06 on domain   1:    0.02701 elapsed seconds
Timing for main: time 0001-01-01_00:50:09 on domain   1:    0.02541 elapsed seconds
Timing for main: time 0001-01-01_00:50:12 on domain   1:    0.08808 elapsed seconds
Timing for main: time 0001-01-01_00:50:15 on domain   1:    0.02583 elapsed seconds
Timing for main: time 0001-01-01_00:50:18 on domain   1:    0.02581 elapsed seconds
Timing for main: time 0001-01-01_00:50:21 on domain   1:    0.02541 elapsed seconds
Timing for main: time 0001-01-01_00:50:24 on domain   1:    0.02533 elapsed seconds
Timing for main: time 0001-01-01_00:50:27 on domain   1:    0.02562 elapsed seconds
Timing for main: time 0001-01-01_00:50:30 on domain   1:    0.02540 elapsed seconds
Timing for main: time 0001-01-01_00:50:33 on domain   1:    0.02549 elapsed seconds
Timing for main: time 0001-01-01_00:50:36 on domain   1:    0.02561 elapsed seconds
Timing for main: time 0001-01-01_00:50:39 on domain   1:    0.02582 elapsed seconds
Timing for main: time 0001-01-01_00:50:42 on domain   1:    0.02552 elapsed seconds
Timing for main: time 0001-01-01_00:50:45 on domain   1:    0.02552 elapsed seconds
Timing for main: time 0001-01-01_00:50:48 on domain   1:    0.02578 elapsed seconds
Timing for main: time 0001-01-01_00:50:51 on domain   1:    0.02586 elapsed seconds
Timing for main: time 0001-01-01_00:50:54 on domain   1:    0.02551 elapsed seconds
Timing for main: time 0001-01-01_00:50:57 on domain   1:    0.02594 elapsed seconds
Timing for main: time 0001-01-01_00:51:00 on domain   1:    0.02542 elapsed seconds
Timing for main: time 0001-01-01_00:51:03 on domain   1:    0.02599 elapsed seconds
Timing for main: time 0001-01-01_00:51:06 on domain   1:    0.03947 elapsed seconds
Timing for main: time 0001-01-01_00:51:09 on domain   1:    0.02565 elapsed seconds
Timing for main: time 0001-01-01_00:51:12 on domain   1:    0.02578 elapsed seconds
Timing for main: time 0001-01-01_00:51:15 on domain   1:    0.02835 elapsed seconds
Timing for main: time 0001-01-01_00:51:18 on domain   1:    0.02593 elapsed seconds
Timing for main: time 0001-01-01_00:51:21 on domain   1:    0.02576 elapsed seconds
Timing for main: time 0001-01-01_00:51:24 on domain   1:    0.02603 elapsed seconds
Timing for main: time 0001-01-01_00:51:27 on domain   1:    0.02577 elapsed seconds
Timing for main: time 0001-01-01_00:51:30 on domain   1:    0.02607 elapsed seconds
Timing for main: time 0001-01-01_00:51:33 on domain   1:    0.02574 elapsed seconds
Timing for main: time 0001-01-01_00:51:36 on domain   1:    0.02607 elapsed seconds
Timing for main: time 0001-01-01_00:51:39 on domain   1:    0.02591 elapsed seconds
Timing for main: time 0001-01-01_00:51:42 on domain   1:    0.03677 elapsed seconds
Timing for main: time 0001-01-01_00:51:45 on domain   1:    0.02608 elapsed seconds
Timing for main: time 0001-01-01_00:51:48 on domain   1:    0.02598 elapsed seconds
Timing for main: time 0001-01-01_00:51:51 on domain   1:    0.02586 elapsed seconds
Timing for main: time 0001-01-01_00:51:54 on domain   1:    0.02590 elapsed seconds
Timing for main: time 0001-01-01_00:51:57 on domain   1:    0.02581 elapsed seconds
Timing for main: time 0001-01-01_00:52:00 on domain   1:    0.02582 elapsed seconds
Timing for main: time 0001-01-01_00:52:03 on domain   1:    0.02634 elapsed seconds
Timing for main: time 0001-01-01_00:52:06 on domain   1:    0.02741 elapsed seconds
Timing for main: time 0001-01-01_00:52:09 on domain   1:    0.03804 elapsed seconds
Timing for main: time 0001-01-01_00:52:12 on domain   1:    0.02591 elapsed seconds
Timing for main: time 0001-01-01_00:52:15 on domain   1:    0.02574 elapsed seconds
Timing for main: time 0001-01-01_00:52:18 on domain   1:    0.02600 elapsed seconds
Timing for main: time 0001-01-01_00:52:21 on domain   1:    0.02623 elapsed seconds
Timing for main: time 0001-01-01_00:52:24 on domain   1:    0.02603 elapsed seconds
Timing for main: time 0001-01-01_00:52:27 on domain   1:    0.02606 elapsed seconds
Timing for main: time 0001-01-01_00:52:30 on domain   1:    0.02606 elapsed seconds
Timing for main: time 0001-01-01_00:52:33 on domain   1:    0.02602 elapsed seconds
Timing for main: time 0001-01-01_00:52:36 on domain   1:    0.02626 elapsed seconds
Timing for main: time 0001-01-01_00:52:39 on domain   1:    0.02599 elapsed seconds
Timing for main: time 0001-01-01_00:52:42 on domain   1:    0.02627 elapsed seconds
Timing for main: time 0001-01-01_00:52:45 on domain   1:    0.02595 elapsed seconds
Timing for main: time 0001-01-01_00:52:48 on domain   1:    0.02620 elapsed seconds
Timing for main: time 0001-01-01_00:52:51 on domain   1:    0.02594 elapsed seconds
Timing for main: time 0001-01-01_00:52:54 on domain   1:    0.02631 elapsed seconds
Timing for main: time 0001-01-01_00:52:57 on domain   1:    0.03951 elapsed seconds
Timing for main: time 0001-01-01_00:53:00 on domain   1:    0.02634 elapsed seconds
Timing for main: time 0001-01-01_00:53:03 on domain   1:    0.02602 elapsed seconds
Timing for main: time 0001-01-01_00:53:06 on domain   1:    0.02619 elapsed seconds
Timing for main: time 0001-01-01_00:53:09 on domain   1:    0.02649 elapsed seconds
Timing for main: time 0001-01-01_00:53:12 on domain   1:    0.02607 elapsed seconds
Timing for main: time 0001-01-01_00:53:15 on domain   1:    0.02617 elapsed seconds
Timing for main: time 0001-01-01_00:53:18 on domain   1:    0.02621 elapsed seconds
Timing for main: time 0001-01-01_00:53:21 on domain   1:    0.15369 elapsed seconds
Timing for main: time 0001-01-01_00:53:24 on domain   1:    0.77212 elapsed seconds
Timing for main: time 0001-01-01_00:53:27 on domain   1:    0.02592 elapsed seconds
Timing for main: time 0001-01-01_00:53:30 on domain   1:    0.02622 elapsed seconds
Timing for main: time 0001-01-01_00:53:33 on domain   1:    0.02584 elapsed seconds
Timing for main: time 0001-01-01_00:53:36 on domain   1:    0.02620 elapsed seconds
Timing for main: time 0001-01-01_00:53:39 on domain   1:    0.02599 elapsed seconds
Timing for main: time 0001-01-01_00:53:42 on domain   1:    0.02603 elapsed seconds
Timing for main: time 0001-01-01_00:53:45 on domain   1:    0.02644 elapsed seconds
Timing for main: time 0001-01-01_00:53:48 on domain   1:    0.59416 elapsed seconds
Timing for main: time 0001-01-01_00:53:51 on domain   1:    0.02563 elapsed seconds
Timing for main: time 0001-01-01_00:53:54 on domain   1:    0.02550 elapsed seconds
Timing for main: time 0001-01-01_00:53:57 on domain   1:    0.02578 elapsed seconds
Timing for main: time 0001-01-01_00:54:00 on domain   1:    0.02546 elapsed seconds
Timing for main: time 0001-01-01_00:54:03 on domain   1:    0.03943 elapsed seconds
Timing for main: time 0001-01-01_00:54:06 on domain   1:    0.02567 elapsed seconds
Timing for main: time 0001-01-01_00:54:09 on domain   1:    0.02582 elapsed seconds
Timing for main: time 0001-01-01_00:54:12 on domain   1:    0.02559 elapsed seconds
Timing for main: time 0001-01-01_00:54:15 on domain   1:    0.02574 elapsed seconds
Timing for main: time 0001-01-01_00:54:18 on domain   1:    0.02566 elapsed seconds
Timing for main: time 0001-01-01_00:54:21 on domain   1:    0.02570 elapsed seconds
Timing for main: time 0001-01-01_00:54:24 on domain   1:    0.02557 elapsed seconds
Timing for main: time 0001-01-01_00:54:27 on domain   1:    0.02562 elapsed seconds
Timing for main: time 0001-01-01_00:54:30 on domain   1:    0.02583 elapsed seconds
Timing for main: time 0001-01-01_00:54:33 on domain   1:    0.02559 elapsed seconds
Timing for main: time 0001-01-01_00:54:36 on domain   1:    0.02603 elapsed seconds
Timing for main: time 0001-01-01_00:54:39 on domain   1:    0.02554 elapsed seconds
Timing for main: time 0001-01-01_00:54:42 on domain   1:    0.02580 elapsed seconds
Timing for main: time 0001-01-01_00:54:45 on domain   1:    0.02598 elapsed seconds
Timing for main: time 0001-01-01_00:54:48 on domain   1:    0.09590 elapsed seconds
Timing for main: time 0001-01-01_00:54:51 on domain   1:    0.02574 elapsed seconds
Timing for main: time 0001-01-01_00:54:54 on domain   1:    0.02589 elapsed seconds
Timing for main: time 0001-01-01_00:54:57 on domain   1:    0.02574 elapsed seconds
Timing for main: time 0001-01-01_00:55:00 on domain   1:    0.02570 elapsed seconds
Timing for main: time 0001-01-01_00:55:03 on domain   1:    0.02565 elapsed seconds
Timing for main: time 0001-01-01_00:55:06 on domain   1:    0.02561 elapsed seconds
Timing for main: time 0001-01-01_00:55:09 on domain   1:    0.02602 elapsed seconds
Timing for main: time 0001-01-01_00:55:12 on domain   1:    0.02554 elapsed seconds
Timing for main: time 0001-01-01_00:55:15 on domain   1:    0.02726 elapsed seconds
Timing for main: time 0001-01-01_00:55:18 on domain   1:    0.02589 elapsed seconds
Timing for main: time 0001-01-01_00:55:21 on domain   1:    0.02582 elapsed seconds
Timing for main: time 0001-01-01_00:55:24 on domain   1:    0.02551 elapsed seconds
Timing for main: time 0001-01-01_00:55:27 on domain   1:    0.02788 elapsed seconds
Timing for main: time 0001-01-01_00:55:30 on domain   1:    0.02559 elapsed seconds
Timing for main: time 0001-01-01_00:55:33 on domain   1:    0.02758 elapsed seconds
Timing for main: time 0001-01-01_00:55:36 on domain   1:    0.03192 elapsed seconds
Timing for main: time 0001-01-01_00:55:39 on domain   1:    0.69979 elapsed seconds
Timing for main: time 0001-01-01_00:55:42 on domain   1:    0.02564 elapsed seconds
Timing for main: time 0001-01-01_00:55:45 on domain   1:    0.02570 elapsed seconds
Timing for main: time 0001-01-01_00:55:48 on domain   1:    0.02566 elapsed seconds
Timing for main: time 0001-01-01_00:55:51 on domain   1:    0.02551 elapsed seconds
Timing for main: time 0001-01-01_00:55:54 on domain   1:    0.02568 elapsed seconds
Timing for main: time 0001-01-01_00:55:57 on domain   1:    0.02570 elapsed seconds
Timing for main: time 0001-01-01_00:56:00 on domain   1:    0.02553 elapsed seconds
Timing for main: time 0001-01-01_00:56:03 on domain   1:    0.02579 elapsed seconds
Timing for main: time 0001-01-01_00:56:06 on domain   1:    0.02600 elapsed seconds
Timing for main: time 0001-01-01_00:56:09 on domain   1:    0.02585 elapsed seconds
Timing for main: time 0001-01-01_00:56:12 on domain   1:    0.02549 elapsed seconds
Timing for main: time 0001-01-01_00:56:15 on domain   1:    0.02592 elapsed seconds
Timing for main: time 0001-01-01_00:56:18 on domain   1:    0.02700 elapsed seconds
Timing for main: time 0001-01-01_00:56:21 on domain   1:    0.04027 elapsed seconds
Timing for main: time 0001-01-01_00:56:24 on domain   1:    0.02699 elapsed seconds
Timing for main: time 0001-01-01_00:56:27 on domain   1:    0.03842 elapsed seconds
Timing for main: time 0001-01-01_00:56:30 on domain   1:    0.02608 elapsed seconds
Timing for main: time 0001-01-01_00:56:33 on domain   1:    0.02558 elapsed seconds
Timing for main: time 0001-01-01_00:56:36 on domain   1:    0.02586 elapsed seconds
Timing for main: time 0001-01-01_00:56:39 on domain   1:    0.02544 elapsed seconds
Timing for main: time 0001-01-01_00:56:42 on domain   1:    0.02582 elapsed seconds
Timing for main: time 0001-01-01_00:56:45 on domain   1:    0.02539 elapsed seconds
Timing for main: time 0001-01-01_00:56:48 on domain   1:    0.02576 elapsed seconds
Timing for main: time 0001-01-01_00:56:51 on domain   1:    0.02555 elapsed seconds
Timing for main: time 0001-01-01_00:56:54 on domain   1:    0.02550 elapsed seconds
Timing for main: time 0001-01-01_00:56:57 on domain   1:    0.02566 elapsed seconds
Timing for main: time 0001-01-01_00:57:00 on domain   1:    0.02538 elapsed seconds
Timing for main: time 0001-01-01_00:57:03 on domain   1:    0.02545 elapsed seconds
Timing for main: time 0001-01-01_00:57:06 on domain   1:    0.02574 elapsed seconds
Timing for main: time 0001-01-01_00:57:09 on domain   1:    0.02543 elapsed seconds
Timing for main: time 0001-01-01_00:57:12 on domain   1:    0.02553 elapsed seconds
Timing for main: time 0001-01-01_00:57:15 on domain   1:    0.02537 elapsed seconds
Timing for main: time 0001-01-01_00:57:18 on domain   1:    0.02536 elapsed seconds
Timing for main: time 0001-01-01_00:57:21 on domain   1:    0.02532 elapsed seconds
Timing for main: time 0001-01-01_00:57:24 on domain   1:    0.02536 elapsed seconds
Timing for main: time 0001-01-01_00:57:27 on domain   1:    0.02538 elapsed seconds
Timing for main: time 0001-01-01_00:57:30 on domain   1:    0.02633 elapsed seconds
Timing for main: time 0001-01-01_00:57:33 on domain   1:    0.11108 elapsed seconds
Timing for main: time 0001-01-01_00:57:36 on domain   1:    0.02615 elapsed seconds
Timing for main: time 0001-01-01_00:57:39 on domain   1:    0.02548 elapsed seconds
Timing for main: time 0001-01-01_00:57:42 on domain   1:    0.02560 elapsed seconds
Timing for main: time 0001-01-01_00:57:45 on domain   1:    0.02525 elapsed seconds
Timing for main: time 0001-01-01_00:57:48 on domain   1:    0.02549 elapsed seconds
Timing for main: time 0001-01-01_00:57:51 on domain   1:    0.02503 elapsed seconds
Timing for main: time 0001-01-01_00:57:54 on domain   1:    0.02545 elapsed seconds
Timing for main: time 0001-01-01_00:57:57 on domain   1:    0.02509 elapsed seconds
Timing for main: time 0001-01-01_00:58:00 on domain   1:    0.02550 elapsed seconds
Timing for main: time 0001-01-01_00:58:03 on domain   1:    0.02506 elapsed seconds
Timing for main: time 0001-01-01_00:58:06 on domain   1:    0.02541 elapsed seconds
Timing for main: time 0001-01-01_00:58:09 on domain   1:    0.02496 elapsed seconds
Timing for main: time 0001-01-01_00:58:12 on domain   1:    0.03977 elapsed seconds
Timing for main: time 0001-01-01_00:58:15 on domain   1:    0.04066 elapsed seconds
Timing for main: time 0001-01-01_00:58:18 on domain   1:    0.02521 elapsed seconds
Timing for main: time 0001-01-01_00:58:21 on domain   1:    0.02516 elapsed seconds
Timing for main: time 0001-01-01_00:58:24 on domain   1:    0.02491 elapsed seconds
Timing for main: time 0001-01-01_00:58:27 on domain   1:    0.02519 elapsed seconds
Timing for main: time 0001-01-01_00:58:30 on domain   1:    0.02479 elapsed seconds
Timing for main: time 0001-01-01_00:58:33 on domain   1:    0.02499 elapsed seconds
Timing for main: time 0001-01-01_00:58:36 on domain   1:    0.02492 elapsed seconds
Timing for main: time 0001-01-01_00:58:39 on domain   1:    0.02497 elapsed seconds
Timing for main: time 0001-01-01_00:58:42 on domain   1:    0.02504 elapsed seconds
Timing for main: time 0001-01-01_00:58:45 on domain   1:    0.02510 elapsed seconds
Timing for main: time 0001-01-01_00:58:48 on domain   1:    0.02488 elapsed seconds
Timing for main: time 0001-01-01_00:58:51 on domain   1:    0.02509 elapsed seconds
Timing for main: time 0001-01-01_00:58:54 on domain   1:    0.02492 elapsed seconds
Timing for main: time 0001-01-01_00:58:57 on domain   1:    0.02526 elapsed seconds
Timing for main: time 0001-01-01_00:59:00 on domain   1:    0.02493 elapsed seconds
Timing for main: time 0001-01-01_00:59:03 on domain   1:    0.02500 elapsed seconds
Timing for main: time 0001-01-01_00:59:06 on domain   1:    0.02483 elapsed seconds
Timing for main: time 0001-01-01_00:59:09 on domain   1:    0.02532 elapsed seconds
Timing for main: time 0001-01-01_00:59:12 on domain   1:    0.02487 elapsed seconds
Timing for main: time 0001-01-01_00:59:15 on domain   1:    0.02519 elapsed seconds
Timing for main: time 0001-01-01_00:59:18 on domain   1:    0.02636 elapsed seconds
Timing for main: time 0001-01-01_00:59:21 on domain   1:    0.57163 elapsed seconds
Timing for main: time 0001-01-01_00:59:24 on domain   1:    0.16021 elapsed seconds
Timing for main: time 0001-01-01_00:59:27 on domain   1:    0.02482 elapsed seconds
Timing for main: time 0001-01-01_00:59:30 on domain   1:    0.02472 elapsed seconds
Timing for main: time 0001-01-01_00:59:33 on domain   1:    0.02483 elapsed seconds
Timing for main: time 0001-01-01_00:59:36 on domain   1:    0.02460 elapsed seconds
Timing for main: time 0001-01-01_00:59:39 on domain   1:    0.02461 elapsed seconds
Timing for main: time 0001-01-01_00:59:42 on domain   1:    0.02470 elapsed seconds
Timing for main: time 0001-01-01_00:59:45 on domain   1:    0.02468 elapsed seconds
Timing for main: time 0001-01-01_00:59:48 on domain   1:    0.02523 elapsed seconds
Timing for main: time 0001-01-01_00:59:51 on domain   1:    0.02464 elapsed seconds
Timing for main: time 0001-01-01_00:59:54 on domain   1:    0.02497 elapsed seconds
Timing for main: time 0001-01-01_00:59:57 on domain   1:    0.02470 elapsed seconds
Timing for main: time 0001-01-01_01:00:00 on domain   1:    0.02488 elapsed seconds
Timing for Writing wrfout_d01_0001-01-01_01:00:00 for domain        1:    0.01198 elapsed seconds
Timing for Writing restart for domain        1:    0.63637 elapsed seconds
wrf: SUCCESS COMPLETE WRF
